/*--------------------------------*- C++ -*----------------------------------*\
| =========                 |                                                 |
| \\      /  F ield         | OpenFOAM: The Open Source CFD Toolbox           |
|  \\    /   O peration     | Version:  2212                                  |
|   \\  /    A nd           | Website:  www.openfoam.com                      |
|    \\/     M anipulation  |                                                 |
\*---------------------------------------------------------------------------*/
FoamFile
{
    version     2.0;
    format      ascii;
    arch        "LSB;label=32;scalar=64";
    class       extendedFeatureEdgeMesh;
    location    "constant/extendedFeatureEdgeMesh";
    object      morphWingTran.extendedFeatureEdgeMesh;
}
// * * * * * * * * * * * * * * * * * * * * * * * * * * * * * * * * * * * * * //

// points

804
(
(0 -0.002 0)
(-6.71498e-32 -0.382 4.52001e-32)
(0.286606 -0.002 -0.104316)
(0.286606 -0.382 -0.104316)
(1.60209e-33 -0.078 -1.02076e-33)
(0.00271735 -0.002 0.00298466)
(9.61256e-33 -0.154 -6.12454e-33)
(4.28761e-33 -0.23 -2.46332e-33)
(-4.15623e-32 -0.306 2.80919e-32)
(0.00271735 -0.382 0.00298466)
(0.00466195 -0.002 0.00384619)
(0.00466195 -0.382 0.00384619)
(0.00016311 -0.002 -0.00403307)
(0.00016311 -0.382 -0.00403307)
(0.00109898 -0.002 -0.005943)
(0.00647851 -0.002 0.00435593)
(0.00216289 -0.002 -0.00750114)
(0.00822827 -0.002 0.00468217)
(0.00329359 -0.002 -0.00887578)
(0.00993499 -0.002 0.00489011)
(0.00446734 -0.002 -0.0101321)
(0.0116108 -0.002 0.00501322)
(0.00567197 -0.002 -0.0113036)
(0.013263 -0.002 0.00507139)
(0.00690023 -0.002 -0.0124102)
(0.0148963 -0.002 0.00507758)
(0.00814742 -0.002 -0.0134648)
(0.0165139 -0.002 0.00504083)
(0.00941024 -0.002 -0.0144765)
(0.0181184 -0.002 0.00496771)
(0.0106863 -0.002 -0.0154517)
(0.0197113 -0.002 0.00486319)
(0.0119738 -0.002 -0.0163956)
(0.0212943 -0.002 0.00473114)
(0.0132713 -0.002 -0.017312)
(0.0228684 -0.002 0.00457465)
(0.0145777 -0.002 -0.0182039)
(0.0244345 -0.002 0.00439623)
(0.015892 -0.002 -0.0190739)
(0.0259933 -0.002 0.00419796)
(0.0172136 -0.002 -0.019924)
(0.0275456 -0.002 0.00398155)
(0.0185418 -0.002 -0.020756)
(0.0290918 -0.002 0.0037485)
(0.0198761 -0.002 -0.0215714)
(0.0306324 -0.002 0.00350008)
(0.021216 -0.002 -0.0223713)
(0.022561 -0.002 -0.023157)
(0.0321678 -0.002 0.00323736)
(0.0239109 -0.002 -0.0239294)
(0.0336984 -0.002 0.00296132)
(0.0252654 -0.002 -0.0246893)
(0.0352244 -0.002 0.00267279)
(0.0266241 -0.002 -0.0254374)
(0.0367461 -0.002 0.00237251)
(0.0382638 -0.002 0.00206117)
(0.0279869 -0.002 -0.0261745)
(0.0397777 -0.002 0.00173935)
(0.0293535 -0.002 -0.026901)
(0.041288 -0.002 0.00140759)
(0.0307236 -0.002 -0.0276177)
(0.0320973 -0.002 -0.0283249)
(0.0427948 -0.002 0.00106638)
(0.0442984 -0.002 0.000716173)
(0.0334742 -0.002 -0.0290231)
(0.0348542 -0.002 -0.0297127)
(0.0457988 -0.002 0.000357369)
(0.0472962 -0.002 -9.6709e-06)
(0.0362372 -0.002 -0.030394)
(0.0487908 -0.002 -0.000384583)
(0.0376231 -0.002 -0.0310675)
(0.0502826 -0.002 -0.000767069)
(0.0390118 -0.002 -0.0317334)
(0.0517718 -0.002 -0.00115682)
(0.0404031 -0.002 -0.0323921)
(0.0532584 -0.002 -0.00155357)
(0.0417969 -0.002 -0.0330437)
(0.0547426 -0.002 -0.00195708)
(0.0431932 -0.002 -0.0336886)
(0.0562244 -0.002 -0.00236708)
(0.0445919 -0.002 -0.034327)
(0.0577039 -0.002 -0.00278338)
(0.0459929 -0.002 -0.0349591)
(0.0591812 -0.002 -0.00320574)
(0.047396 -0.002 -0.0355852)
(0.0606563 -0.002 -0.003634)
(0.0488013 -0.002 -0.0362053)
(0.0621294 -0.002 -0.00406794)
(0.0502087 -0.002 -0.0368198)
(0.0636005 -0.002 -0.0045074)
(0.0516181 -0.002 -0.0374287)
(0.0650696 -0.002 -0.00495222)
(0.0530294 -0.002 -0.0380323)
(0.0665369 -0.002 -0.00540224)
(0.0544427 -0.002 -0.0386307)
(0.0558577 -0.002 -0.039224)
(0.0680022 -0.002 -0.0058573)
(0.0572746 -0.002 -0.0398125)
(0.0694659 -0.002 -0.00631729)
(0.0586932 -0.002 -0.0403961)
(0.0709277 -0.002 -0.00678205)
(0.0601135 -0.002 -0.0409751)
(0.0723879 -0.002 -0.00725144)
(0.0615354 -0.002 -0.0415496)
(0.0738464 -0.002 -0.00772537)
(0.062959 -0.002 -0.0421197)
(0.0753034 -0.002 -0.00820371)
(0.0643841 -0.002 -0.0426854)
(0.0767587 -0.002 -0.00868634)
(0.0658107 -0.002 -0.043247)
(0.0782126 -0.002 -0.00917316)
(0.0672388 -0.002 -0.0438045)
(0.0796649 -0.002 -0.00966406)
(0.0686684 -0.002 -0.044358)
(0.0811158 -0.002 -0.0101589)
(0.0700993 -0.002 -0.0449077)
(0.0825653 -0.002 -0.0106577)
(0.0715317 -0.002 -0.0454535)
(0.0840134 -0.002 -0.0111603)
(0.0854601 -0.002 -0.0116666)
(0.0729654 -0.002 -0.0459956)
(0.0869056 -0.002 -0.0121766)
(0.0744005 -0.002 -0.046534)
(0.0883497 -0.002 -0.01269)
(0.0758368 -0.002 -0.047069)
(0.0772744 -0.002 -0.0476004)
(0.0897926 -0.002 -0.013207)
(0.0912342 -0.002 -0.0137273)
(0.0787132 -0.002 -0.0481285)
(0.0926746 -0.002 -0.014251)
(0.0801532 -0.002 -0.0486532)
(0.0815945 -0.002 -0.0491747)
(0.0941139 -0.002 -0.0147779)
(0.095552 -0.002 -0.0153079)
(0.0830368 -0.002 -0.0496931)
(0.0969889 -0.002 -0.0158411)
(0.0844803 -0.002 -0.0502083)
(0.0984248 -0.002 -0.0163774)
(0.0859249 -0.002 -0.0507204)
(0.0998596 -0.002 -0.0169166)
(0.0873707 -0.002 -0.0512296)
(0.101293 -0.002 -0.0174588)
(0.0888174 -0.002 -0.0517359)
(0.0902652 -0.002 -0.0522392)
(0.102726 -0.002 -0.0180038)
(0.104158 -0.002 -0.0185516)
(0.0917141 -0.002 -0.0527398)
(0.0931639 -0.002 -0.0532376)
(0.105588 -0.002 -0.0191022)
(0.0946147 -0.002 -0.0537327)
(0.107018 -0.002 -0.0196555)
(0.0960665 -0.002 -0.0542252)
(0.108447 -0.002 -0.0202114)
(0.0975193 -0.002 -0.0547151)
(0.109874 -0.002 -0.02077)
(0.0989729 -0.002 -0.0552024)
(0.111301 -0.002 -0.021331)
(0.100427 -0.002 -0.0556873)
(0.112727 -0.002 -0.0218946)
(0.101883 -0.002 -0.0561696)
(0.114152 -0.002 -0.0224606)
(0.103339 -0.002 -0.0566496)
(0.115576 -0.002 -0.0230291)
(0.104796 -0.002 -0.0571272)
(0.116999 -0.002 -0.0235999)
(0.106254 -0.002 -0.0576025)
(0.118422 -0.002 -0.024173)
(0.107713 -0.002 -0.0580755)
(0.119843 -0.002 -0.0247484)
(0.109173 -0.002 -0.0585463)
(0.121264 -0.002 -0.025326)
(0.122684 -0.002 -0.0259058)
(0.110633 -0.002 -0.0590149)
(0.112095 -0.002 -0.0594813)
(0.124103 -0.002 -0.0264878)
(0.113557 -0.002 -0.0599456)
(0.125522 -0.002 -0.0270719)
(0.11502 -0.002 -0.0604078)
(0.126939 -0.002 -0.027658)
(0.116483 -0.002 -0.060868)
(0.128356 -0.002 -0.0282463)
(0.117947 -0.002 -0.0613262)
(0.129773 -0.002 -0.0288365)
(0.119412 -0.002 -0.0617824)
(0.131188 -0.002 -0.0294287)
(0.120878 -0.002 -0.0622367)
(0.132603 -0.002 -0.0300228)
(0.122344 -0.002 -0.062689)
(0.134017 -0.002 -0.0306189)
(0.123811 -0.002 -0.0631395)
(0.13543 -0.002 -0.0312168)
(0.136843 -0.002 -0.0318166)
(0.125279 -0.002 -0.0635881)
(0.126748 -0.002 -0.0640349)
(0.138255 -0.002 -0.0324182)
(0.128217 -0.002 -0.06448)
(0.139667 -0.002 -0.0330216)
(0.141077 -0.002 -0.0336267)
(0.129686 -0.002 -0.0649232)
(0.131157 -0.002 -0.0653648)
(0.142487 -0.002 -0.0342335)
(0.132628 -0.002 -0.0658046)
(0.143897 -0.002 -0.0348421)
(0.134099 -0.002 -0.0662428)
(0.145306 -0.002 -0.0354523)
(0.135571 -0.002 -0.0666793)
(0.146714 -0.002 -0.0360642)
(0.137044 -0.002 -0.0671142)
(0.148122 -0.002 -0.0366777)
(0.138517 -0.002 -0.0675475)
(0.149529 -0.002 -0.0372928)
(0.150936 -0.002 -0.0379095)
(0.139991 -0.002 -0.0679793)
(0.152342 -0.002 -0.0385277)
(0.141466 -0.002 -0.0684095)
(0.153747 -0.002 -0.0391474)
(0.142941 -0.002 -0.0688381)
(0.155152 -0.002 -0.0397687)
(0.144416 -0.002 -0.0692653)
(0.156556 -0.002 -0.0403914)
(0.145892 -0.002 -0.069691)
(0.15796 -0.002 -0.0410156)
(0.147369 -0.002 -0.0701152)
(0.159364 -0.002 -0.0416412)
(0.148846 -0.002 -0.070538)
(0.160766 -0.002 -0.0422682)
(0.150324 -0.002 -0.0709593)
(0.162169 -0.002 -0.0428967)
(0.151802 -0.002 -0.0713793)
(0.163571 -0.002 -0.0435265)
(0.153281 -0.002 -0.0717979)
(0.164972 -0.002 -0.0441576)
(0.15476 -0.002 -0.0722151)
(0.166373 -0.002 -0.0447902)
(0.156239 -0.002 -0.072631)
(0.167773 -0.002 -0.045424)
(0.15772 -0.002 -0.0730456)
(0.169173 -0.002 -0.0460591)
(0.1592 -0.002 -0.0734588)
(0.170572 -0.002 -0.0466956)
(0.160681 -0.002 -0.0738708)
(0.171971 -0.002 -0.0473333)
(0.162163 -0.002 -0.0742815)
(0.17337 -0.002 -0.0479722)
(0.163645 -0.002 -0.074691)
(0.174768 -0.002 -0.0486125)
(0.165127 -0.002 -0.0750992)
(0.176165 -0.002 -0.0492539)
(0.16661 -0.002 -0.0755061)
(0.168093 -0.002 -0.0759119)
(0.177562 -0.002 -0.0498965)
(0.169577 -0.002 -0.0763165)
(0.178959 -0.002 -0.0505404)
(0.171061 -0.002 -0.0767198)
(0.180355 -0.002 -0.0511854)
(0.172546 -0.002 -0.077122)
(0.181751 -0.002 -0.0518316)
(0.174031 -0.002 -0.0775231)
(0.183147 -0.002 -0.052479)
(0.184541 -0.002 -0.0531274)
(0.175517 -0.002 -0.077923)
(0.177003 -0.002 -0.0783218)
(0.185936 -0.002 -0.0537771)
(0.178489 -0.002 -0.0787194)
(0.18733 -0.002 -0.0544278)
(0.188724 -0.002 -0.0550797)
(0.179976 -0.002 -0.0791159)
(0.190117 -0.002 -0.0557327)
(0.181463 -0.002 -0.0795114)
(0.19151 -0.002 -0.0563868)
(0.18295 -0.002 -0.0799057)
(0.192903 -0.002 -0.0570419)
(0.184438 -0.002 -0.0802989)
(0.194295 -0.002 -0.0576982)
(0.185926 -0.002 -0.0806911)
(0.195687 -0.002 -0.0583554)
(0.187415 -0.002 -0.0810822)
(0.197078 -0.002 -0.0590138)
(0.188904 -0.002 -0.0814723)
(0.198469 -0.002 -0.0596732)
(0.190393 -0.002 -0.0818613)
(0.19986 -0.002 -0.0603336)
(0.191883 -0.002 -0.0822493)
(0.20125 -0.002 -0.0609951)
(0.193373 -0.002 -0.0826362)
(0.20264 -0.002 -0.0616575)
(0.194864 -0.002 -0.0830221)
(0.20403 -0.002 -0.0623211)
(0.196355 -0.002 -0.083407)
(0.205419 -0.002 -0.0629856)
(0.197846 -0.002 -0.0837909)
(0.206808 -0.002 -0.0636511)
(0.199338 -0.002 -0.0841738)
(0.208196 -0.002 -0.0643176)
(0.20083 -0.002 -0.0845557)
(0.209584 -0.002 -0.0649852)
(0.202322 -0.002 -0.0849365)
(0.210972 -0.002 -0.0656537)
(0.203815 -0.002 -0.0853164)
(0.212359 -0.002 -0.0663232)
(0.205308 -0.002 -0.0856953)
(0.213746 -0.002 -0.0669936)
(0.206802 -0.002 -0.0860732)
(0.208296 -0.002 -0.0864502)
(0.215133 -0.002 -0.0676651)
(0.20979 -0.002 -0.0868262)
(0.216519 -0.002 -0.0683376)
(0.211284 -0.002 -0.0872011)
(0.217905 -0.002 -0.069011)
(0.212779 -0.002 -0.0875752)
(0.219291 -0.002 -0.0696853)
(0.214274 -0.002 -0.0879482)
(0.220676 -0.002 -0.0703607)
(0.21577 -0.002 -0.0883203)
(0.222061 -0.002 -0.071037)
(0.223445 -0.002 -0.0717143)
(0.217266 -0.002 -0.0886914)
(0.218762 -0.002 -0.0890616)
(0.224829 -0.002 -0.0723926)
(0.220259 -0.002 -0.0894308)
(0.226213 -0.002 -0.0730717)
(0.227597 -0.002 -0.0737519)
(0.221756 -0.002 -0.089799)
(0.22898 -0.002 -0.074433)
(0.223253 -0.002 -0.0901663)
(0.224751 -0.002 -0.0905326)
(0.230362 -0.002 -0.0751151)
(0.231745 -0.002 -0.0757982)
(0.226249 -0.002 -0.090898)
(0.227747 -0.002 -0.0912624)
(0.233127 -0.002 -0.0764822)
(0.229246 -0.002 -0.0916258)
(0.234509 -0.002 -0.0771672)
(0.230745 -0.002 -0.0919883)
(0.23589 -0.002 -0.0778531)
(0.237271 -0.002 -0.07854)
(0.238652 -0.002 -0.0792279)
(0.232245 -0.002 -0.0923497)
(0.233745 -0.002 -0.0927103)
(0.235245 -0.002 -0.0930698)
(0.240032 -0.002 -0.0799167)
(0.241412 -0.002 -0.0806066)
(0.236745 -0.002 -0.0934284)
(0.242792 -0.002 -0.0812974)
(0.238246 -0.002 -0.093786)
(0.239747 -0.002 -0.0941426)
(0.244171 -0.002 -0.0819892)
(0.24555 -0.002 -0.0826819)
(0.241249 -0.002 -0.0944982)
(0.246928 -0.002 -0.0833757)
(0.242751 -0.002 -0.0948529)
(0.248306 -0.002 -0.0840705)
(0.244253 -0.002 -0.0952065)
(0.249684 -0.002 -0.0847662)
(0.245756 -0.002 -0.0955592)
(0.251062 -0.002 -0.085463)
(0.247259 -0.002 -0.0959108)
(0.252439 -0.002 -0.0861607)
(0.248762 -0.002 -0.0962614)
(0.253815 -0.002 -0.0868595)
(0.250266 -0.002 -0.0966111)
(0.25177 -0.002 -0.0969597)
(0.255192 -0.002 -0.0875593)
(0.253275 -0.002 -0.0973072)
(0.256568 -0.002 -0.0882602)
(0.25478 -0.002 -0.0976538)
(0.257943 -0.002 -0.088962)
(0.256285 -0.002 -0.0979993)
(0.259318 -0.002 -0.0896649)
(0.257791 -0.002 -0.0983437)
(0.260693 -0.002 -0.0903689)
(0.262068 -0.002 -0.0910739)
(0.259297 -0.002 -0.0986871)
(0.260803 -0.002 -0.0990295)
(0.263442 -0.002 -0.09178)
(0.26231 -0.002 -0.0993707)
(0.264815 -0.002 -0.0924871)
(0.263817 -0.002 -0.0997109)
(0.266189 -0.002 -0.0931954)
(0.265325 -0.002 -0.10005)
(0.267561 -0.002 -0.0939046)
(0.266833 -0.002 -0.100388)
(0.268934 -0.002 -0.0946151)
(0.268341 -0.002 -0.100725)
(0.270306 -0.002 -0.0953266)
(0.271678 -0.002 -0.0960392)
(0.26985 -0.002 -0.101061)
(0.271359 -0.002 -0.101395)
(0.273049 -0.002 -0.096753)
(0.272869 -0.002 -0.101729)
(0.27442 -0.002 -0.0974679)
(0.274379 -0.002 -0.102061)
(0.27579 -0.002 -0.0981839)
(0.275889 -0.002 -0.102392)
(0.27716 -0.002 -0.0989011)
(0.27853 -0.002 -0.0996195)
(0.2774 -0.002 -0.102722)
(0.278912 -0.002 -0.103051)
(0.279899 -0.002 -0.100339)
(0.281267 -0.002 -0.10106)
(0.280423 -0.002 -0.103379)
(0.282636 -0.002 -0.101782)
(0.281935 -0.002 -0.103705)
(0.283448 -0.002 -0.104031)
(0.284003 -0.002 -0.102505)
(0.284961 -0.002 -0.104355)
(0.285371 -0.002 -0.103229)
(0.00647851 -0.382 0.00435593)
(0.00109898 -0.382 -0.005943)
(0.00216289 -0.382 -0.00750114)
(0.00822827 -0.382 0.00468217)
(0.00329359 -0.382 -0.00887578)
(0.00993499 -0.382 0.00489011)
(0.00446734 -0.382 -0.0101321)
(0.0116108 -0.382 0.00501322)
(0.00567197 -0.382 -0.0113036)
(0.013263 -0.382 0.00507139)
(0.00690023 -0.382 -0.0124102)
(0.0148963 -0.382 0.00507758)
(0.00814742 -0.382 -0.0134648)
(0.0165139 -0.382 0.00504083)
(0.00941024 -0.382 -0.0144765)
(0.0181184 -0.382 0.00496771)
(0.0106863 -0.382 -0.0154517)
(0.0197113 -0.382 0.00486319)
(0.0119738 -0.382 -0.0163956)
(0.0212943 -0.382 0.00473114)
(0.0132713 -0.382 -0.017312)
(0.0228684 -0.382 0.00457465)
(0.0145777 -0.382 -0.0182039)
(0.0244345 -0.382 0.00439623)
(0.015892 -0.382 -0.0190739)
(0.0259933 -0.382 0.00419796)
(0.0172136 -0.382 -0.019924)
(0.0275456 -0.382 0.00398155)
(0.0185418 -0.382 -0.020756)
(0.0290918 -0.382 0.0037485)
(0.0198761 -0.382 -0.0215714)
(0.0306324 -0.382 0.00350008)
(0.021216 -0.382 -0.0223713)
(0.022561 -0.382 -0.023157)
(0.0321678 -0.382 0.00323736)
(0.0239109 -0.382 -0.0239294)
(0.0336984 -0.382 0.00296132)
(0.0252654 -0.382 -0.0246893)
(0.0352244 -0.382 0.00267279)
(0.0266241 -0.382 -0.0254374)
(0.0367461 -0.382 0.00237251)
(0.0382638 -0.382 0.00206117)
(0.0279869 -0.382 -0.0261745)
(0.0397777 -0.382 0.00173935)
(0.0293535 -0.382 -0.026901)
(0.041288 -0.382 0.00140759)
(0.0307236 -0.382 -0.0276177)
(0.0320973 -0.382 -0.0283249)
(0.0427948 -0.382 0.00106638)
(0.0442984 -0.382 0.000716173)
(0.0334742 -0.382 -0.0290231)
(0.0348542 -0.382 -0.0297127)
(0.0457988 -0.382 0.000357369)
(0.0472962 -0.382 -9.6709e-06)
(0.0362372 -0.382 -0.030394)
(0.0487908 -0.382 -0.000384583)
(0.0376231 -0.382 -0.0310675)
(0.0502826 -0.382 -0.000767069)
(0.0390118 -0.382 -0.0317334)
(0.0517718 -0.382 -0.00115682)
(0.0404031 -0.382 -0.0323921)
(0.0532584 -0.382 -0.00155357)
(0.0417969 -0.382 -0.0330437)
(0.0547426 -0.382 -0.00195708)
(0.0431932 -0.382 -0.0336886)
(0.0562244 -0.382 -0.00236708)
(0.0445919 -0.382 -0.034327)
(0.0577039 -0.382 -0.00278338)
(0.0459929 -0.382 -0.0349591)
(0.0591812 -0.382 -0.00320574)
(0.047396 -0.382 -0.0355852)
(0.0606563 -0.382 -0.003634)
(0.0488013 -0.382 -0.0362053)
(0.0621294 -0.382 -0.00406794)
(0.0502087 -0.382 -0.0368198)
(0.0636005 -0.382 -0.0045074)
(0.0516181 -0.382 -0.0374287)
(0.0650696 -0.382 -0.00495222)
(0.0530294 -0.382 -0.0380323)
(0.0665369 -0.382 -0.00540224)
(0.0544427 -0.382 -0.0386307)
(0.0558577 -0.382 -0.039224)
(0.0680022 -0.382 -0.0058573)
(0.0572746 -0.382 -0.0398125)
(0.0694659 -0.382 -0.00631729)
(0.0586932 -0.382 -0.0403961)
(0.0709277 -0.382 -0.00678205)
(0.0601135 -0.382 -0.0409751)
(0.0723879 -0.382 -0.00725144)
(0.0615354 -0.382 -0.0415496)
(0.0738464 -0.382 -0.00772537)
(0.062959 -0.382 -0.0421197)
(0.0753034 -0.382 -0.00820371)
(0.0643841 -0.382 -0.0426854)
(0.0767587 -0.382 -0.00868634)
(0.0658107 -0.382 -0.043247)
(0.0782126 -0.382 -0.00917316)
(0.0672388 -0.382 -0.0438045)
(0.0796649 -0.382 -0.00966406)
(0.0686684 -0.382 -0.044358)
(0.0811158 -0.382 -0.0101589)
(0.0700993 -0.382 -0.0449077)
(0.0825653 -0.382 -0.0106577)
(0.0715317 -0.382 -0.0454535)
(0.0840134 -0.382 -0.0111603)
(0.0854601 -0.382 -0.0116666)
(0.0729654 -0.382 -0.0459956)
(0.0869056 -0.382 -0.0121766)
(0.0744005 -0.382 -0.046534)
(0.0883497 -0.382 -0.01269)
(0.0758368 -0.382 -0.047069)
(0.0772744 -0.382 -0.0476004)
(0.0897926 -0.382 -0.013207)
(0.0912342 -0.382 -0.0137273)
(0.0787132 -0.382 -0.0481285)
(0.0926746 -0.382 -0.014251)
(0.0801532 -0.382 -0.0486532)
(0.0815945 -0.382 -0.0491747)
(0.0941139 -0.382 -0.0147779)
(0.095552 -0.382 -0.0153079)
(0.0830368 -0.382 -0.0496931)
(0.0969889 -0.382 -0.0158411)
(0.0844803 -0.382 -0.0502083)
(0.0984248 -0.382 -0.0163774)
(0.0859249 -0.382 -0.0507204)
(0.0998596 -0.382 -0.0169166)
(0.0873707 -0.382 -0.0512296)
(0.101293 -0.382 -0.0174588)
(0.0888174 -0.382 -0.0517359)
(0.0902652 -0.382 -0.0522392)
(0.102726 -0.382 -0.0180038)
(0.104158 -0.382 -0.0185516)
(0.0917141 -0.382 -0.0527398)
(0.0931639 -0.382 -0.0532376)
(0.105588 -0.382 -0.0191022)
(0.0946147 -0.382 -0.0537327)
(0.107018 -0.382 -0.0196555)
(0.0960665 -0.382 -0.0542252)
(0.108447 -0.382 -0.0202114)
(0.0975193 -0.382 -0.0547151)
(0.109874 -0.382 -0.02077)
(0.0989729 -0.382 -0.0552024)
(0.111301 -0.382 -0.021331)
(0.100427 -0.382 -0.0556873)
(0.112727 -0.382 -0.0218946)
(0.101883 -0.382 -0.0561696)
(0.114152 -0.382 -0.0224606)
(0.103339 -0.382 -0.0566496)
(0.115576 -0.382 -0.0230291)
(0.104796 -0.382 -0.0571272)
(0.116999 -0.382 -0.0235999)
(0.106254 -0.382 -0.0576025)
(0.118422 -0.382 -0.024173)
(0.107713 -0.382 -0.0580755)
(0.119843 -0.382 -0.0247484)
(0.109173 -0.382 -0.0585463)
(0.121264 -0.382 -0.025326)
(0.122684 -0.382 -0.0259058)
(0.110633 -0.382 -0.0590149)
(0.112095 -0.382 -0.0594813)
(0.124103 -0.382 -0.0264878)
(0.113557 -0.382 -0.0599456)
(0.125522 -0.382 -0.0270719)
(0.11502 -0.382 -0.0604078)
(0.126939 -0.382 -0.027658)
(0.116483 -0.382 -0.060868)
(0.128356 -0.382 -0.0282463)
(0.117947 -0.382 -0.0613262)
(0.129773 -0.382 -0.0288365)
(0.119412 -0.382 -0.0617824)
(0.131188 -0.382 -0.0294287)
(0.120878 -0.382 -0.0622367)
(0.132603 -0.382 -0.0300228)
(0.122344 -0.382 -0.062689)
(0.134017 -0.382 -0.0306189)
(0.123811 -0.382 -0.0631395)
(0.13543 -0.382 -0.0312168)
(0.136843 -0.382 -0.0318166)
(0.125279 -0.382 -0.0635881)
(0.126748 -0.382 -0.0640349)
(0.138255 -0.382 -0.0324182)
(0.128217 -0.382 -0.06448)
(0.139667 -0.382 -0.0330216)
(0.141077 -0.382 -0.0336267)
(0.129686 -0.382 -0.0649232)
(0.131157 -0.382 -0.0653648)
(0.142487 -0.382 -0.0342335)
(0.132628 -0.382 -0.0658046)
(0.143897 -0.382 -0.0348421)
(0.134099 -0.382 -0.0662428)
(0.145306 -0.382 -0.0354523)
(0.135571 -0.382 -0.0666793)
(0.146714 -0.382 -0.0360642)
(0.137044 -0.382 -0.0671142)
(0.148122 -0.382 -0.0366777)
(0.138517 -0.382 -0.0675475)
(0.149529 -0.382 -0.0372928)
(0.150936 -0.382 -0.0379095)
(0.139991 -0.382 -0.0679793)
(0.152342 -0.382 -0.0385277)
(0.141466 -0.382 -0.0684095)
(0.153747 -0.382 -0.0391474)
(0.142941 -0.382 -0.0688381)
(0.155152 -0.382 -0.0397687)
(0.144416 -0.382 -0.0692653)
(0.156556 -0.382 -0.0403914)
(0.145892 -0.382 -0.069691)
(0.15796 -0.382 -0.0410156)
(0.147369 -0.382 -0.0701152)
(0.159364 -0.382 -0.0416412)
(0.148846 -0.382 -0.070538)
(0.160766 -0.382 -0.0422682)
(0.150324 -0.382 -0.0709593)
(0.162169 -0.382 -0.0428967)
(0.151802 -0.382 -0.0713793)
(0.163571 -0.382 -0.0435265)
(0.153281 -0.382 -0.0717979)
(0.164972 -0.382 -0.0441576)
(0.15476 -0.382 -0.0722151)
(0.166373 -0.382 -0.0447902)
(0.156239 -0.382 -0.072631)
(0.167773 -0.382 -0.045424)
(0.15772 -0.382 -0.0730456)
(0.169173 -0.382 -0.0460591)
(0.1592 -0.382 -0.0734588)
(0.170572 -0.382 -0.0466956)
(0.160681 -0.382 -0.0738708)
(0.171971 -0.382 -0.0473333)
(0.162163 -0.382 -0.0742815)
(0.17337 -0.382 -0.0479722)
(0.163645 -0.382 -0.074691)
(0.174768 -0.382 -0.0486125)
(0.165127 -0.382 -0.0750992)
(0.176165 -0.382 -0.0492539)
(0.16661 -0.382 -0.0755061)
(0.168093 -0.382 -0.0759119)
(0.177562 -0.382 -0.0498965)
(0.169577 -0.382 -0.0763165)
(0.178959 -0.382 -0.0505404)
(0.171061 -0.382 -0.0767198)
(0.180355 -0.382 -0.0511854)
(0.172546 -0.382 -0.077122)
(0.181751 -0.382 -0.0518316)
(0.174031 -0.382 -0.0775231)
(0.183147 -0.382 -0.052479)
(0.184541 -0.382 -0.0531274)
(0.175517 -0.382 -0.077923)
(0.177003 -0.382 -0.0783218)
(0.185936 -0.382 -0.0537771)
(0.178489 -0.382 -0.0787194)
(0.18733 -0.382 -0.0544278)
(0.188724 -0.382 -0.0550797)
(0.179976 -0.382 -0.0791159)
(0.190117 -0.382 -0.0557327)
(0.181463 -0.382 -0.0795114)
(0.19151 -0.382 -0.0563868)
(0.18295 -0.382 -0.0799057)
(0.192903 -0.382 -0.0570419)
(0.184438 -0.382 -0.0802989)
(0.194295 -0.382 -0.0576982)
(0.185926 -0.382 -0.0806911)
(0.195687 -0.382 -0.0583554)
(0.187415 -0.382 -0.0810822)
(0.197078 -0.382 -0.0590138)
(0.188904 -0.382 -0.0814723)
(0.198469 -0.382 -0.0596732)
(0.190393 -0.382 -0.0818613)
(0.19986 -0.382 -0.0603336)
(0.191883 -0.382 -0.0822493)
(0.20125 -0.382 -0.0609951)
(0.193373 -0.382 -0.0826362)
(0.20264 -0.382 -0.0616575)
(0.194864 -0.382 -0.0830221)
(0.20403 -0.382 -0.0623211)
(0.196355 -0.382 -0.083407)
(0.205419 -0.382 -0.0629856)
(0.197846 -0.382 -0.0837909)
(0.206808 -0.382 -0.0636511)
(0.199338 -0.382 -0.0841738)
(0.208196 -0.382 -0.0643176)
(0.20083 -0.382 -0.0845557)
(0.209584 -0.382 -0.0649852)
(0.202322 -0.382 -0.0849365)
(0.210972 -0.382 -0.0656537)
(0.203815 -0.382 -0.0853164)
(0.212359 -0.382 -0.0663232)
(0.205308 -0.382 -0.0856953)
(0.213746 -0.382 -0.0669936)
(0.206802 -0.382 -0.0860732)
(0.208296 -0.382 -0.0864502)
(0.215133 -0.382 -0.0676651)
(0.20979 -0.382 -0.0868262)
(0.216519 -0.382 -0.0683376)
(0.211284 -0.382 -0.0872011)
(0.217905 -0.382 -0.069011)
(0.212779 -0.382 -0.0875752)
(0.219291 -0.382 -0.0696853)
(0.214274 -0.382 -0.0879482)
(0.220676 -0.382 -0.0703607)
(0.21577 -0.382 -0.0883203)
(0.222061 -0.382 -0.071037)
(0.223445 -0.382 -0.0717143)
(0.217266 -0.382 -0.0886914)
(0.218762 -0.382 -0.0890616)
(0.224829 -0.382 -0.0723926)
(0.220259 -0.382 -0.0894308)
(0.226213 -0.382 -0.0730717)
(0.227597 -0.382 -0.0737519)
(0.221756 -0.382 -0.089799)
(0.22898 -0.382 -0.074433)
(0.223253 -0.382 -0.0901663)
(0.224751 -0.382 -0.0905326)
(0.230362 -0.382 -0.0751151)
(0.231745 -0.382 -0.0757982)
(0.226249 -0.382 -0.090898)
(0.227747 -0.382 -0.0912624)
(0.233127 -0.382 -0.0764822)
(0.229246 -0.382 -0.0916258)
(0.234509 -0.382 -0.0771672)
(0.230745 -0.382 -0.0919883)
(0.23589 -0.382 -0.0778531)
(0.237271 -0.382 -0.07854)
(0.238652 -0.382 -0.0792279)
(0.232245 -0.382 -0.0923497)
(0.233745 -0.382 -0.0927103)
(0.235245 -0.382 -0.0930698)
(0.240032 -0.382 -0.0799167)
(0.241412 -0.382 -0.0806066)
(0.236745 -0.382 -0.0934284)
(0.242792 -0.382 -0.0812974)
(0.238246 -0.382 -0.093786)
(0.239747 -0.382 -0.0941426)
(0.244171 -0.382 -0.0819892)
(0.24555 -0.382 -0.0826819)
(0.241249 -0.382 -0.0944982)
(0.246928 -0.382 -0.0833757)
(0.242751 -0.382 -0.0948529)
(0.248306 -0.382 -0.0840705)
(0.244253 -0.382 -0.0952065)
(0.249684 -0.382 -0.0847662)
(0.245756 -0.382 -0.0955592)
(0.251062 -0.382 -0.085463)
(0.247259 -0.382 -0.0959108)
(0.252439 -0.382 -0.0861607)
(0.248762 -0.382 -0.0962614)
(0.253815 -0.382 -0.0868595)
(0.250266 -0.382 -0.0966111)
(0.25177 -0.382 -0.0969597)
(0.255192 -0.382 -0.0875593)
(0.253275 -0.382 -0.0973072)
(0.256568 -0.382 -0.0882602)
(0.25478 -0.382 -0.0976538)
(0.257943 -0.382 -0.088962)
(0.256285 -0.382 -0.0979993)
(0.259318 -0.382 -0.0896649)
(0.257791 -0.382 -0.0983437)
(0.260693 -0.382 -0.0903689)
(0.262068 -0.382 -0.0910739)
(0.259297 -0.382 -0.0986871)
(0.260803 -0.382 -0.0990295)
(0.263442 -0.382 -0.09178)
(0.26231 -0.382 -0.0993707)
(0.264815 -0.382 -0.0924871)
(0.263817 -0.382 -0.0997109)
(0.266189 -0.382 -0.0931954)
(0.265325 -0.382 -0.10005)
(0.267561 -0.382 -0.0939046)
(0.266833 -0.382 -0.100388)
(0.268934 -0.382 -0.0946151)
(0.268341 -0.382 -0.100725)
(0.270306 -0.382 -0.0953266)
(0.271678 -0.382 -0.0960392)
(0.26985 -0.382 -0.101061)
(0.271359 -0.382 -0.101395)
(0.273049 -0.382 -0.096753)
(0.272869 -0.382 -0.101729)
(0.27442 -0.382 -0.0974679)
(0.274379 -0.382 -0.102061)
(0.27579 -0.382 -0.0981839)
(0.275889 -0.382 -0.102392)
(0.27716 -0.382 -0.0989011)
(0.27853 -0.382 -0.0996195)
(0.2774 -0.382 -0.102722)
(0.278912 -0.382 -0.103051)
(0.279899 -0.382 -0.100339)
(0.281267 -0.382 -0.10106)
(0.280423 -0.382 -0.103379)
(0.282636 -0.382 -0.101782)
(0.281935 -0.382 -0.103705)
(0.283448 -0.382 -0.104031)
(0.284003 -0.382 -0.102505)
(0.284961 -0.382 -0.104355)
(0.285371 -0.382 -0.103229)
(0.286606 -0.078 -0.104316)
(0.286606 -0.154 -0.104316)
(0.286606 -0.23 -0.104316)
(0.286606 -0.306 -0.104316)
)

// edges

806
(
(0 4)
(5 0)
(4 6)
(6 7)
(7 8)
(8 1)
(1 9)
(10 5)
(9 11)
(0 12)
(13 1)
(14 12)
(10 15)
(16 14)
(15 17)
(18 16)
(17 19)
(20 18)
(19 21)
(22 20)
(21 23)
(24 22)
(23 25)
(26 24)
(25 27)
(28 26)
(27 29)
(30 28)
(29 31)
(32 30)
(31 33)
(34 32)
(33 35)
(36 34)
(35 37)
(38 36)
(37 39)
(40 38)
(39 41)
(42 40)
(41 43)
(44 42)
(43 45)
(46 44)
(47 46)
(45 48)
(49 47)
(48 50)
(51 49)
(50 52)
(53 51)
(52 54)
(54 55)
(56 53)
(55 57)
(58 56)
(57 59)
(60 58)
(61 60)
(59 62)
(62 63)
(64 61)
(65 64)
(63 66)
(66 67)
(68 65)
(67 69)
(70 68)
(69 71)
(72 70)
(71 73)
(74 72)
(73 75)
(76 74)
(75 77)
(78 76)
(77 79)
(80 78)
(79 81)
(82 80)
(81 83)
(84 82)
(83 85)
(86 84)
(85 87)
(88 86)
(87 89)
(90 88)
(89 91)
(92 90)
(91 93)
(94 92)
(95 94)
(93 96)
(97 95)
(96 98)
(99 97)
(98 100)
(101 99)
(100 102)
(103 101)
(102 104)
(105 103)
(104 106)
(107 105)
(106 108)
(109 107)
(108 110)
(111 109)
(110 112)
(113 111)
(112 114)
(115 113)
(114 116)
(117 115)
(116 118)
(118 119)
(120 117)
(119 121)
(122 120)
(121 123)
(124 122)
(125 124)
(123 126)
(126 127)
(128 125)
(127 129)
(130 128)
(131 130)
(129 132)
(132 133)
(134 131)
(133 135)
(136 134)
(135 137)
(138 136)
(137 139)
(140 138)
(139 141)
(142 140)
(143 142)
(141 144)
(144 145)
(146 143)
(147 146)
(145 148)
(149 147)
(148 150)
(151 149)
(150 152)
(153 151)
(152 154)
(155 153)
(154 156)
(157 155)
(156 158)
(159 157)
(158 160)
(161 159)
(160 162)
(163 161)
(162 164)
(165 163)
(164 166)
(167 165)
(166 168)
(169 167)
(168 170)
(170 171)
(172 169)
(173 172)
(171 174)
(175 173)
(174 176)
(177 175)
(176 178)
(179 177)
(178 180)
(181 179)
(180 182)
(183 181)
(182 184)
(185 183)
(184 186)
(187 185)
(186 188)
(189 187)
(188 190)
(190 191)
(192 189)
(193 192)
(191 194)
(195 193)
(194 196)
(196 197)
(198 195)
(199 198)
(197 200)
(201 199)
(200 202)
(203 201)
(202 204)
(205 203)
(204 206)
(207 205)
(206 208)
(209 207)
(208 210)
(210 211)
(212 209)
(211 213)
(214 212)
(213 215)
(216 214)
(215 217)
(218 216)
(217 219)
(220 218)
(219 221)
(222 220)
(221 223)
(224 222)
(223 225)
(226 224)
(225 227)
(228 226)
(227 229)
(230 228)
(229 231)
(232 230)
(231 233)
(234 232)
(233 235)
(236 234)
(235 237)
(238 236)
(237 239)
(240 238)
(239 241)
(242 240)
(241 243)
(244 242)
(243 245)
(246 244)
(245 247)
(248 246)
(249 248)
(247 250)
(251 249)
(250 252)
(253 251)
(252 254)
(255 253)
(254 256)
(257 255)
(256 258)
(258 259)
(260 257)
(261 260)
(259 262)
(263 261)
(262 264)
(264 265)
(266 263)
(265 267)
(268 266)
(267 269)
(270 268)
(269 271)
(272 270)
(271 273)
(274 272)
(273 275)
(276 274)
(275 277)
(278 276)
(277 279)
(280 278)
(279 281)
(282 280)
(281 283)
(284 282)
(283 285)
(286 284)
(285 287)
(288 286)
(287 289)
(290 288)
(289 291)
(292 290)
(291 293)
(294 292)
(293 295)
(296 294)
(295 297)
(298 296)
(297 299)
(300 298)
(299 301)
(302 300)
(303 302)
(301 304)
(305 303)
(304 306)
(307 305)
(306 308)
(309 307)
(308 310)
(311 309)
(310 312)
(313 311)
(312 314)
(314 315)
(316 313)
(317 316)
(315 318)
(319 317)
(318 320)
(320 321)
(322 319)
(321 323)
(324 322)
(325 324)
(323 326)
(326 327)
(328 325)
(329 328)
(327 330)
(331 329)
(330 332)
(333 331)
(332 334)
(334 335)
(335 336)
(337 333)
(338 337)
(339 338)
(336 340)
(340 341)
(342 339)
(341 343)
(344 342)
(345 344)
(343 346)
(346 347)
(348 345)
(347 349)
(350 348)
(349 351)
(352 350)
(351 353)
(354 352)
(353 355)
(356 354)
(355 357)
(358 356)
(357 359)
(360 358)
(361 360)
(359 362)
(363 361)
(362 364)
(365 363)
(364 366)
(367 365)
(366 368)
(369 367)
(368 370)
(370 371)
(372 369)
(373 372)
(371 374)
(375 373)
(374 376)
(377 375)
(376 378)
(379 377)
(378 380)
(381 379)
(380 382)
(383 381)
(382 384)
(384 385)
(386 383)
(387 386)
(385 388)
(389 387)
(388 390)
(391 389)
(390 392)
(393 391)
(392 394)
(394 395)
(396 393)
(397 396)
(395 398)
(398 399)
(400 397)
(399 401)
(402 400)
(403 402)
(401 404)
(405 403)
(404 406)
(406 2)
(2 405)
(11 407)
(13 408)
(408 409)
(410 407)
(409 411)
(412 410)
(411 413)
(414 412)
(413 415)
(416 414)
(415 417)
(418 416)
(417 419)
(420 418)
(419 421)
(422 420)
(421 423)
(424 422)
(423 425)
(426 424)
(425 427)
(428 426)
(427 429)
(430 428)
(429 431)
(432 430)
(431 433)
(434 432)
(433 435)
(436 434)
(435 437)
(438 436)
(437 439)
(439 440)
(441 438)
(440 442)
(443 441)
(442 444)
(445 443)
(444 446)
(447 445)
(448 447)
(446 449)
(450 448)
(449 451)
(452 450)
(451 453)
(453 454)
(455 452)
(456 455)
(454 457)
(457 458)
(459 456)
(460 459)
(458 461)
(462 460)
(461 463)
(464 462)
(463 465)
(466 464)
(465 467)
(468 466)
(467 469)
(470 468)
(469 471)
(472 470)
(471 473)
(474 472)
(473 475)
(476 474)
(475 477)
(478 476)
(477 479)
(480 478)
(479 481)
(482 480)
(481 483)
(484 482)
(483 485)
(486 484)
(485 487)
(487 488)
(489 486)
(488 490)
(491 489)
(490 492)
(493 491)
(492 494)
(495 493)
(494 496)
(497 495)
(496 498)
(499 497)
(498 500)
(501 499)
(500 502)
(503 501)
(502 504)
(505 503)
(504 506)
(507 505)
(506 508)
(509 507)
(508 510)
(511 509)
(512 511)
(510 513)
(514 512)
(513 515)
(516 514)
(515 517)
(517 518)
(519 516)
(520 519)
(518 521)
(522 520)
(521 523)
(523 524)
(525 522)
(526 525)
(524 527)
(528 526)
(527 529)
(530 528)
(529 531)
(532 530)
(531 533)
(534 532)
(533 535)
(535 536)
(537 534)
(538 537)
(536 539)
(539 540)
(541 538)
(540 542)
(543 541)
(542 544)
(545 543)
(544 546)
(547 545)
(546 548)
(549 547)
(548 550)
(551 549)
(550 552)
(553 551)
(552 554)
(555 553)
(554 556)
(557 555)
(556 558)
(559 557)
(558 560)
(561 559)
(560 562)
(563 561)
(564 563)
(562 565)
(565 566)
(567 564)
(566 568)
(569 567)
(568 570)
(571 569)
(570 572)
(573 571)
(572 574)
(575 573)
(574 576)
(577 575)
(576 578)
(579 577)
(578 580)
(581 579)
(580 582)
(583 581)
(584 583)