/*--------------------------------*- C++ -*----------------------------------*\
| =========                 |                                                 |
| \\      /  F ield         | OpenFOAM: The Open Source CFD Toolbox           |
|  \\    /   O peration     | Version:  2212                                  |
|   \\  /    A nd           | Website:  www.openfoam.com                      |
|    \\/     M anipulation  |                                                 |
\*---------------------------------------------------------------------------*/
FoamFile
{
    version     2.0;
    format      ascii;
    arch        "LSB;label=32;scalar=64";
    class       extendedFeatureEdgeMesh;
    location    "constant/extendedFeatureEdgeMesh";
    object      morphWing.extendedFeatureEdgeMesh;
}
// * * * * * * * * * * * * * * * * * * * * * * * * * * * * * * * * * * * * * //

// points

141
(
(0 0 0)
(0.305 0 0)
(0 0.38 0)
(0.305 0.38 0)
(0.00217028 0 -0.00442981)
(0.192169 0 -0.0130203)
(0.241917 0 -0.0079645)
(0.152252 0 -0.0161224)
(0.0938812 0 -0.0183008)
(0.120024 0 -0.0177637)
(0.0726045 0 -0.0180144)
(0.0552539 0 -0.0171221)
(0.00661961 0 -0.00748924)
(0.0125953 0 -0.00999417)
(0.0201635 0 -0.0121849)
(0.0295487 0 -0.0141196)
(0.0410945 0 -0.0157868)
(0.00217028 0 0.00442981)
(0.0125953 0 0.00999417)
(0.00661961 0 0.00748924)
(0.0201635 0 0.0121849)
(0.0410945 0 0.0157868)
(0.0295487 0 0.0141196)
(0.0552539 0 0.0171221)
(0.0726045 0 0.0180144)
(0.241917 0 0.0079645)
(0.192169 0 0.0130203)
(0.120024 0 0.0177637)
(0.0938812 0 0.0183008)
(0.152252 0 0.0161224)
(0 0.00496711 0)
(0 0.375033 0)
(0.00217028 0.38 -0.00442981)
(0.0295487 0.38 -0.0141196)
(0.0410945 0.38 -0.0157868)
(0.0552539 0.38 -0.0171221)
(0.120024 0.38 -0.0177637)
(0.152252 0.38 -0.0161224)
(0 0.36023 0)
(0 0.365164 0)
(0 0.325691 0)
(0 0.330625 0)
(0 0.286217 0)
(0 0.291151 0)
(0 0.138191 0)
(0 0.143125 0)
(0 0.192467 0)
(0 0.197401 0)
(0 0.256612 0)
(0 0.261546 0)
(0.192169 0.38 -0.0130203)
(0 0.0691118 0)
(0 0.0740461 0)
(0 0.26648 0)
(0 0.271414 0)
(0 0.276349 0)
(0 0.30102 0)
(0 0.305954 0)
(0 0.11352 0)
(0 0.118454 0)
(0 0.281283 0)
(0 0.133257 0)
(0 0.123388 0)
(0 0.128322 0)
(0 0.148059 0)
(0 0.335559 0)
(0 0.103651 0)
(0 0.108586 0)
(0 0.0937829 0)
(0 0.0987171 0)
(0 0.340493 0)
(0 0.345428 0)
(0 0.320757 0)
(0 0.217138 0)
(0 0.222072 0)
(0 0.0592434 0)
(0 0.0641776 0)
(0 0.202336 0)
(0 0.152993 0)
(0 0.157928 0)
(0 0.187533 0)
(0 0.177664 0)
(0 0.182599 0)
(0 0.241809 0)
(0 0.246743 0)
(0 0.20727 0)
(0 0.212204 0)
(0 0.310888 0)
(0 0.315822 0)
(0.00661961 0.38 -0.00748924)
(0.0125953 0.38 -0.00999417)
(0 0.251678 0)
(0 0.0789803 0)
(0 0.0839145 0)
(0 0.350362 0)
(0 0.355296 0)
(0 0.0345724 0)
(0 0.0395066 0)
(0 0.296086 0)
(0 0.162862 0)
(0 0.167796 0)
(0 0.0543092 0)
(0 0.0444408 0)
(0 0.049375 0)
(0.0726045 0.38 -0.0180144)
(0 0.00990132 0)
(0.0201635 0.38 -0.0121849)
(0 0.0296382 0)
(0 0.0197697 0)
(0 0.0247039 0)
(0.0938812 0.38 -0.0183008)
(0 0.370099 0)
(0 0.236875 0)
(0 0.0888487 0)
(0 0.227007 0)
(0 0.231941 0)
(0 0.17273 0)
(0 0.0148355 0)
(0.305 0.227996 -7.52717e-20)
(0.305 0.189994 0)
(0.241917 0.38 -0.0079645)
(0.305 0.151992 0)
(0.305 0.342 0)
(0.305 0.038 -3.76359e-20)
(0.305 0.113996 0)
(0.305 0.076 -7.52717e-20)
(0.305 0.304 0)
(0.305 0.265998 -3.76359e-20)
(0.00217028 0.38 0.00442981)
(0.0938812 0.38 0.0183008)
(0.0726045 0.38 0.0180144)
(0.0552539 0.38 0.0171221)
(0.0410945 0.38 0.0157868)
(0.0125953 0.38 0.00999417)
(0.00661961 0.38 0.00748924)
(0.0201635 0.38 0.0121849)
(0.120024 0.38 0.0177637)
(0.241917 0.38 0.0079645)
(0.192169 0.38 0.0130203)
(0.152252 0.38 0.0161224)
(0.0295487 0.38 0.0141196)
)

// edges

143
(
(0 4)
(5 6)
(7 5)
(8 9)
(10 8)
(9 7)
(11 10)
(4 12)
(12 13)
(14 15)
(13 14)
(15 16)
(16 11)
(6 1)
(17 0)
(18 19)
(20 18)
(21 22)
(23 21)
(22 20)
(24 23)
(25 26)
(1 25)
(27 28)
(29 27)
(26 29)
(28 24)
(19 17)
(0 30)
(31 2)
(2 32)
(33 34)
(34 35)
(36 37)
(38 39)
(40 41)
(42 43)
(44 45)
(46 47)
(48 49)
(37 50)
(51 52)
(49 53)
(54 55)
(56 57)
(58 59)
(60 42)
(61 44)
(62 63)
(45 64)
(41 65)
(66 67)
(68 69)
(70 71)
(72 40)
(73 74)
(75 76)
(47 77)
(78 79)
(80 46)
(81 82)
(83 84)
(85 86)
(87 88)
(89 90)
(91 48)
(92 93)
(94 95)
(96 97)
(67 58)
(98 56)
(99 100)
(101 75)
(102 103)
(35 104)
(32 89)
(30 105)
(95 38)
(103 101)
(90 106)
(97 102)
(107 96)
(71 94)
(52 92)
(79 99)
(43 98)
(108 109)
(64 78)
(84 91)
(106 33)
(110 36)
(111 31)
(65 70)
(77 85)
(53 54)
(82 80)
(112 83)
(63 61)
(55 60)
(88 72)
(76 51)
(113 68)
(86 73)
(104 110)
(59 62)
(114 115)
(116 81)
(57 87)
(69 66)
(117 108)
(105 117)
(39 111)
(109 107)
(93 113)
(100 116)
(74 114)
(115 112)
(118 119)
(50 120)
(119 121)
(120 3)
(3 122)
(123 1)
(121 124)
(124 125)
(122 126)
(125 123)
(126 127)
(127 118)
(128 2)
(129 130)
(131 132)
(133 134)
(134 128)
(135 133)
(136 129)
(137 138)
(3 137)
(139 136)
(140 135)
(132 140)
(130 131)
(138 139)
)

// concaveStart mixedStart nonFeatureStart
4 4 4
// internalStart flatStart openStart multipleStart
143 143 143 143
// normals

282
(
(0 -1 0)
(-0.898016 0 -0.439962)
(0 -1 -0)
(0.101106 -0.00247092 -0.994873)
(0 -1 -0)
(0.0774799 -0.00268841 -0.99699)
(-0 -1 0)
(0.0205433 -0.00459653 -0.999778)
(0 -1 0)
(-0.013463 -0.0047547 -0.999898)
(0 -1 0)
(0.0508605 -0.00470837 -0.998695)
(0 -1 -0)
(-0.0513574 -0.00511104 -0.998667)
(0 -1 -0)
(-0.566109 -0.0413771 -0.823291)
(0 -1 -0)
(-0.386488 -0.0234051 -0.921997)
(0 -1 -0)
(-0.201902 -0.00143066 -0.979405)
(0 -1 -0)
(-0.278043 -0.00726998 -0.960541)
(0 -1 -0)
(-0.142911 0.00142165 -0.989734)
(0 -1 0)
(-0.0938885 -0.00616711 -0.995564)
(0 -1 0)
(0.125252 -0.0112402 -0.992061)
(-0 -1 0)
(-0.898016 0 0.439962)
(0 -1 0)
(-0.386561 -0.0130211 0.922172)
(0 -1 0)
(-0.278044 -0.00657176 0.960546)
(0 -1 0)
(-0.142905 -0.00925222 0.989693)
(0 -1 0)
(-0.0938899 0.00305973 0.995578)
(0 -1 0)
(-0.201891 -0.0104425 0.979352)
(0 -1 0)
(-0.0513579 -0.00245976 0.998677)
(0 -1 0)
(0.101106 -0.00377839 0.994869)
(-0 -1 0)
(0.125258 -0.0055165 0.992109)
(-0 -1 0)
(0.0205434 -0.00426422 0.99978)
(0 -1 0)
(0.0508606 -0.00410549 0.998697)
(-0 -1 0)
(0.0774798 -0.00297964 0.996989)
(0 -1 0)
(-0.0134629 -0.0061538 0.99989)
(0 -1 0)
(-0.566364 -0.0285067 0.823662)
(-0.898016 0 -0.439962)
(-0.898016 0 0.439962)
(0 1 -0)
(-0.142907 0.008214 -0.989702)
(0 1 0)
(-0.0938878 0.00730631 -0.995556)
(0 1 0)
(0.0508607 0.00368618 -0.998699)
(0 1 0)
(-0.848029 0 -0.52995)
(-0.937273 0 0.348597)
(-0.864699 0 -0.50229)
(-0.928294 0 0.371847)
(-0.846846 0 -0.531838)
(-0.904358 0 0.426776)
(-0.854861 -0 -0.518857)
(-0.938156 0 0.346212)
(-0.858011 -0 -0.513632)
(-0.931152 0 0.364632)
(-0.889155 -0 -0.457605)
(-0.934286 0 0.356525)
(0.0774792 0.00496121 -0.996982)
(0 1 0)
(-0.941038 -0 -0.338301)
(-0.95223 0 0.305383)
(-0.925481 0 -0.378794)
(-0.896236 0 0.443577)
(-0.92644 -0 -0.376443)
(-0.942703 0 0.333634)
(-0.934622 0 -0.355644)
(-0.938463 0 0.345379)
(-0.928189 0 -0.372109)
(-0.935508 0 0.353306)
(-0.914635 -0 -0.40428)
(-0.926706 0 0.375787)
(-0.919819 -0 -0.392342)
(-0.939526 0 0.342478)
(-0.94071 0 -0.339211)
(-0.9189 0 0.39449)
(-0.91706 0 -0.398748)
(-0.932719 0 0.360605)
(-0.920665 0 -0.390354)
(-0.938041 0 0.346525)
(-0.923659 -0 -0.383216)
(-0.941594 0 0.336749)
(-0.941274 0 -0.337643)
(-0.883262 0 0.46888)
(-0.938611 -0 -0.344976)
(-0.938532 0 0.345193)
(-0.922442 -0 -0.386136)
(-0.907987 0 0.418998)
(-0.91495 -0 -0.403567)
(-0.940162 0 0.340729)
(-0.923188 0 -0.384349)
(-0.924451 0 0.381301)
(-0.919132 0 -0.393951)
(-0.930051 0 0.36743)
(-0.936398 -0 -0.350939)
(-0.881698 0 0.471815)
(-0.91128 -0 -0.411787)
(-0.92873 0 0.370756)
(-0.932983 0 -0.359922)
(-0.94248 0 0.334263)
(-0.940107 -0 -0.340881)
(-0.912559 0 0.408944)
(-0.935243 -0 -0.354008)
(-0.903338 0 0.428929)
(-0.942414 0 -0.334448)
(-0.904322 0 0.42685)
(-0.386487 0.0234978 -0.921995)
(0 1 0)
(-0.884592 -0 -0.466366)
(-0.929918 0 0.367767)
(-0.893294 0 -0.449472)
(-0.942091 0 0.335356)
(-0.911689 0 -0.410881)
(-0.918127 0 0.396287)
(-0.905893 -0 -0.423507)
(-0.93515 0 0.354253)
(-0.89563 -0 -0.444801)
(-0.931707 0 0.363211)
(-0.906229 -0 -0.422788)
(-0.938463 0 0.345379)
(-0.894168 -0 -0.447732)
(-0.931935 0 0.362626)
(-0.903952 -0 -0.427634)
(-0.942559 0 0.33404)
(-0.884744 0 -0.466077)
(-0.876855 0 0.480754)
(-0.0513571 0.00614581 -0.998661)
(-0 1 0)
(-0.566162 0.0390741 -0.823367)
(-0 1 0)
(-0.929468 -0 -0.368902)
(-0.924949 0 0.38009)
(-0.890614 0 -0.45476)
(-0.937273 0 0.348597)
(-0.890433 -0 -0.455113)
(-0.942559 0 0.33404)
(-0.278021 0.0143334 -0.960468)
(0 1 0)
(-0.866933 0 -0.498425)
(-0.901989 0 0.431759)
(-0.877532 -0 -0.479518)
(-0.942625 0 0.333855)
(-0.882584 -0 -0.470155)
(-0.921195 0 0.389102)
(-0.873134 -0 -0.48748)
(-0.942091 0 0.335356)
(-0.873102 -0 -0.487538)
(-0.931935 0 0.362626)
(-0.900924 0 -0.433977)
(-0.879224 0 0.476408)
(-0.939831 -0 -0.34164)
(-0.888909 0 0.458084)
(-0.936398 -0 -0.350939)
(-0.904454 0 0.426572)
(-0.952165 0 -0.305586)
(-0.948251 0 0.317522)
(-0.20189 0.0105629 -0.979351)
(0 1 0)
(0.0205435 0.00294767 -0.999785)
(0 1 0)
(-0.912259 -0 -0.409614)
(-0.915591 0 0.402112)
(-0.938611 -0 -0.344976)
(-0.938532 0 0.345193)
(-0.935243 -0 -0.354008)
(-0.938224 0 0.346028)
(-0.925481 0 -0.378794)
(-0.876304 0 0.481758)
(-0.926792 -0 -0.375575)
(-0.913256 0 0.407386)
(-0.940107 -0 -0.340881)
(-0.893803 0 0.448459)
(-0.94071 0 -0.339211)
(-0.939526 0 0.342478)
(-0.925184 0 -0.37952)
(-0.942703 0 0.333634)
(-0.942414 0 -0.334448)
(-0.882066 0 0.471126)
(-0.941038 -0 -0.338301)
(-0.911322 0 0.411695)
(-0.936221 -0 -0.351412)
(-0.905366 0 0.424633)
(-0.928086 0 -0.372365)
(-0.871958 0 0.489581)
(-0.0134631 0.00366863 -0.999903)
(0 1 0)
(-0.936483 -0 -0.350714)
(-0.935508 0 0.353306)
(-0.935633 -0 -0.352976)
(-0.917199 0 0.39843)
(-0.935982 -0 -0.352049)
(-0.94248 0 0.334263)
(-0.938406 -0 -0.345534)
(-0.925352 0 0.37911)
(-0.941274 0 -0.337643)
(-0.941594 0 0.336749)
(-0.896074 -0 -0.443904)
(-0.903725 0 0.428113)
(-0.927886 0 -0.372863)
(-0.924949 0 0.38009)
(-0.910068 0 -0.414459)
(-0.915591 0 0.402112)
(-0.933357 0 -0.358948)
(-0.942625 0 0.333855)
(-0.926351 0 -0.376661)
(-0.930028 0 0.367489)
(-0.932447 0 -0.361308)
(-0.930757 0 0.365637)
(-0.865645 0 -0.500658)
(-0.933357 0 0.358948)
(-0.926928 0 -0.375239)
(-0.917199 0 0.39843)
(0.131195 -1.96361e-18 -0.991357)
(0.13291 1.96316e-18 0.991128)
(0.101106 0.00257757 -0.994872)
(0 1 0)
(0.131195 0 -0.991357)
(0.132915 0 0.991127)
(0.125254 0.00992652 -0.992075)
(0 1 -0)
(0.131903 0 -0.991263)
(0.1315 -0 0.991316)
(0.13183 -9.81773e-19 -0.991272)
(0.131081 0 0.991372)
(0.132667 0 -0.991161)
(0.132706 -0 0.991155)
(0.132662 1.96352e-18 -0.991161)
(0.1327 -1.96351e-18 0.991156)
(0.132663 0 -0.991161)
(0.1315 0 0.991316)
(0.132898 -9.81632e-19 -0.99113)
(0.131081 9.81872e-19 0.991372)
(0.132588 9.81624e-19 -0.991171)
(0.13271 -9.81608e-19 0.991155)
(0.132908 9.81582e-19 -0.991128)
(0.132712 -9.81608e-19 0.991155)
(0 1 0)
(-0.013463 0.00533854 0.999895)
(0 1 0)
(-0.093889 0.00534026 0.995568)
(0 1 0)
(-0.386481 0.0241875 0.92198)
(0 1 0)
(-0.566203 0.0371752 0.823427)
(0 1 0)
(-0.278047 0.00437463 0.960557)
(0 1 0)
(0.0205432 0.00577295 0.999772)
(0 1 0)
(0.101106 0.00316918 0.994871)
(0 1 0)
(0.125258 0.00551496 0.992109)
(0 1 0)
(0.0508604 0.00495576 0.998693)
(0 1 0)
(-0.2019 -0.00442672 0.979396)
(0 1 0)
(-0.142911 0.00256762 0.989732)
(0 1 0)
(-0.0513575 0.00478229 0.998669)
(0 1 0)
(0.0774794 0.00445841 0.996984)
(0 1 0)
)

// normal volume types

282
(
0
0
0
0
0
0
0
0
0
0
0
0
0
0
0
0
0
0
0
0
0
0
0
0
0
0
0
0
0
0
0
0
0
0
0
0
0
0
0
0
0
0
0
0
0
0
0
0
0
0
0
0
0
0
0
0
0
0
0
0
0
0
0
0
0
0
0
0
0
0
0
0
0
0
0
0
0
0
0
0
0
0
0
0
0
0
0
0
0
0
0
0
0
0
0
0
0
0
0
0
0
0
0
0
0
0
0
0
0
0
0
0
0
0
0
0
0
0
0
0
0
0
0
0
0
0
0
0
0
0
0
0
0
0
0
0
0
0
0
0
0
0
0
0
0
0
0
0
0
0
0
0
0
0
0
0
0
0
0
0
0
0
0
0
0
0
0
0
0
0
0
0
0
0
0
0
0
0
0
0
0
0
0
0
0
0
0
0
0
0
0
0
0
0
0
0
0
0
0
0
0
0
0
0
0
0
0
0
0
0
0
0
0
0
0
0
0
0
0
0
0
0
0
0
0
0
0
0
0
0
0
0
0
0
0
0
0
0
0
0
0
0
0
0
0
0
0
0
0
0
0
0
0
0
0
0
0
0
0
0
0
0
0
0
0
0
0
0
0
0
0
0
0
0
0
0
0
0
0
0
0
0
)

// normalDirections

143
(
2(1 -1)
2(1 -1)
2(1 -1)
2(1 -1)
2(1 -1)
2(1 -1)
2(1 -1)
2(1 -1)
2(1 -1)
2(1 -1)
2(1 -1)
2(1 -1)
2(1 -1)
2(1 -1)
2(1 -1)
2(1 -1)
2(1 -1)
2(1 -1)
2(1 -1)
2(1 -1)
2(1 -1)
2(1 -1)
2(1 -1)
2(1 -1)
2(1 -1)
2(1 -1)
2(1 -1)
2(1 -1)
2(1 -1)
2(1 -1)
2(1 -1)
2(1 -1)
2(1 -1)
2(1 -1)
2(1 -1)
2(1 -1)
2(1 -1)
2(1 -1)
2(1 -1)
2(1 -1)
2(1 -1)
2(1 -1)
2(1 -1)
2(1 -1)
2(1 -1)
2(1 -1)
2(1 -1)
2(1 -1)
2(1 -1)
2(1 -1)
2(1 -1)
2(1 -1)
2(1 -1)
2(1 -1)
2(1 -1)
2(1 -1)
2(1 -1)
2(1 -1)
2(1 -1)
2(1 -1)
2(1 -1)
2(1 -1)
2(1 -1)
2(1 -1)
2(1 -1)
2(1 -1)
2(1 -1)
2(1 -1)
2(1 -1)
2(1 -1)
2(1 -1)
2(1 -1)
2(1 -1)
2(1 -1)
2(1 -1)
2(1 -1)
2(1 -1)
2(1 -1)
2(1 -1)
2(1 -1)
2(1 -1)
2(1 -1)
2(1 -1)
2(1 -1)
2(1 -1)
2(1 -1)
2(1 -1)
2(1 -1)
2(1 -1)
2(1 -1)
2(1 -1)
2(1 -1)
2(1 -1)
2(1 -1)
2(1 -1)
2(1 -1)
2(1 -1)
2(1 -1)
2(1 -1)
2(1 -1)
2(1 -1)
2(1 -1)
2(1 -1)
2(1 -1)
2(1 -1)
2(1 -1)
2(1 -1)
2(1 -1)
2(1 -1)
2(1 -1)
2(1 -1)
2(1 -1)
2(1 -1)
2(1 -1)
2(1 -1)
2(1 -1)
2(1 -1)
2(1 -1)
2(1 -1)
2(1 -1)
2(1 -1)
2(1 -1)
2(1 -1)
2(1 -1)
2(1 -1)
2(1 -1)
2(1 -1)
2(1 -1)
2(1 -1)
2(1 -1)
2(1 -1)
2(1 -1)
2(1 -1)
2(1 -1)
2(1 -1)
2(1 -1)
2(1 -1)
2(1 -1)
2(1 -1)
2(1 -1)
2(1 -1)
2(1 -1)
2(1 -1)
)

// edgeNormals

143
(
2(0 1)
2(2 3)
2(4 5)
2(6 7)
2(8 9)
2(10 11)
2(12 13)
2(14 15)
2(16 17)
2(18 19)
2(20 21)
2(22 23)
2(24 25)
2(26 27)
2(28 29)
2(30 31)
2(32 33)
2(34 35)
2(36 37)
2(38 39)
2(40 41)
2(42 43)
2(44 45)
2(46 47)
2(48 49)
2(50 51)
2(52 53)
2(54 55)
2(1 29)
2(56 57)
2(56 58)
2(59 60)
2(61 62)
2(63 64)
2(65 66)
2(67 68)
2(69 70)
2(71 72)
2(73 74)
2(75 76)
2(77 78)
2(79 80)
2(81 82)
2(83 84)
2(85 86)
2(87 88)
2(89 90)
2(91 92)
2(93 94)
2(95 96)
2(97 98)
2(99 100)
2(101 102)
2(103 104)
2(105 106)
2(107 108)
2(109 110)
2(111 112)
2(113 114)
2(115 116)
2(117 118)
2(119 120)
2(121 122)
2(123 124)
2(125 126)
2(127 128)
2(129 130)
2(131 132)
2(133 134)
2(135 136)
2(137 138)
2(139 140)
2(141 142)
2(143 144)
2(145 146)
2(147 148)
2(149 150)
2(151 152)
2(153 154)
2(155 156)
2(157 158)
2(159 160)
2(161 162)
2(163 164)
2(165 166)
2(167 168)
2(169 170)
2(171 172)
2(173 174)
2(175 176)
2(177 178)
2(179 180)
2(181 182)
2(183 184)
2(185 186)
2(187 188)
2(189 190)
2(191 192)
2(193 194)
2(195 196)
2(197 198)
2(199 200)
2(201 202)
2(203 204)
2(205 206)
2(207 208)
2(209 210)
2(211 212)
2(213 214)
2(215 216)
2(217 218)
2(219 220)
2(221 222)
2(223 224)
2(225 226)
2(227 228)
2(229 230)
2(231 232)
2(233 234)
2(235 236)
2(237 238)
2(239 240)
2(241 242)
2(243 244)
2(245 246)
2(247 248)
2(249 250)
2(251 252)
2(253 254)
2(57 255)
2(256 257)
2(258 259)
2(260 261)
2(262 263)
2(264 265)
2(266 267)
2(268 269)
2(270 271)
2(272 273)
2(274 275)
2(276 277)
2(278 279)
2(280 281)
)

// featurePointNormals

4
(
3(0 1 29)
5(26 27 45 241 242)
3(56 57 58)
5(237 238 239 240 270)
)

// featurePointEdges

4
(
3(14 28 0)
3(22 122 13)
3(29 129 30)
3(121 137 120)
)

// regionEdges
0()


// ************************************************************************* //
