/*--------------------------------*- C++ -*----------------------------------*\
| =========                 |                                                 |
| \\      /  F ield         | OpenFOAM: The Open Source CFD Toolbox           |
|  \\    /   O peration     | Version:  2212                                  |
|   \\  /    A nd           | Website:  www.openfoam.com                      |
|    \\/     M anipulation  |                                                 |
\*---------------------------------------------------------------------------*/
FoamFile
{
    version     2.0;
    format      ascii;
    arch        "LSB;label=32;scalar=64";
    class       featureEdgeMesh;
    location    "constant/triSurface";
    object      morphWingTran.eMesh;
}
// * * * * * * * * * * * * * * * * * * * * * * * * * * * * * * * * * * * * * //


// points:

800
(
(0 -0.002 0)
(0 -0.382 0)
(0.304582 -0.002 -0.0159625)
(0.304653 -0.382 -0.0146069)
(0.00172599 -0.382 0.00364872)
(0.00172599 -0.002 0.00364872)
(0.00333373 -0.382 0.00504115)
(0.00333373 -0.002 0.00504115)
(0.00133514 -0.382 -0.00380915)
(0.00133514 -0.002 -0.00380915)
(0.00278852 -0.002 -0.00536201)
(0.00492188 -0.002 0.00605973)
(0.0042615 -0.002 -0.00654101)
(0.0064998 -0.002 0.00688329)
(0.0057447 -0.002 -0.007525)
(0.00807114 -0.002 0.00758114)
(0.00723448 -0.002 -0.00838328)
(0.00963776 -0.002 0.00818884)
(0.008729 -0.002 -0.0091514)
(0.0112008 -0.002 0.00872752)
(0.0102271 -0.002 -0.00985051)
(0.0127609 -0.002 0.00921097)
(0.0117281 -0.002 -0.0104944)
(0.0143186 -0.002 0.00964878)
(0.0132316 -0.002 -0.0110926)
(0.0158743 -0.002 0.0100479)
(0.014737 -0.002 -0.0116522)
(0.0174282 -0.002 0.0104137)
(0.0162442 -0.002 -0.0121784)
(0.0189806 -0.002 0.0107503)
(0.0177529 -0.002 -0.0126754)
(0.019263 -0.002 -0.0131464)
(0.0205316 -0.002 0.0110608)
(0.0207743 -0.002 -0.0135941)
(0.0220815 -0.002 0.0113481)
(0.0222867 -0.002 -0.0140206)
(0.0236302 -0.002 0.0116142)
(0.0238001 -0.002 -0.014428)
(0.0251779 -0.002 0.0118611)
(0.0267247 -0.002 0.0120903)
(0.0253145 -0.002 -0.0148176)
(0.0282706 -0.002 0.0123032)
(0.0268297 -0.002 -0.0151909)
(0.0298157 -0.002 0.0125009)
(0.0283457 -0.002 -0.015549)
(0.0313601 -0.002 0.0126844)
(0.0298624 -0.002 -0.0158929)
(0.0329038 -0.002 0.0128546)
(0.0313799 -0.002 -0.0162236)
(0.0344468 -0.002 0.0130124)
(0.0328979 -0.002 -0.0165418)
(0.0359892 -0.002 0.0131584)
(0.0344167 -0.002 -0.0168482)
(0.0375311 -0.002 0.0132932)
(0.0359359 -0.002 -0.0171435)
(0.0390723 -0.002 0.0134175)
(0.0374558 -0.002 -0.0174282)
(0.0406131 -0.002 0.0135318)
(0.0389762 -0.002 -0.0177029)
(0.0421534 -0.002 0.0136365)
(0.040497 -0.002 -0.017968)
(0.0436931 -0.002 0.013732)
(0.0420184 -0.002 -0.018224)
(0.0452325 -0.002 0.0138188)
(0.0435402 -0.002 -0.0184712)
(0.0467713 -0.002 0.0138973)
(0.0450624 -0.002 -0.0187101)
(0.0483098 -0.002 0.0139677)
(0.0465851 -0.002 -0.0189409)
(0.0498478 -0.002 0.0140303)
(0.0481082 -0.002 -0.019164)
(0.0513855 -0.002 0.0140856)
(0.0496317 -0.002 -0.0193796)
(0.0529228 -0.002 0.0141336)
(0.0511555 -0.002 -0.0195881)
(0.0544597 -0.002 0.0141748)
(0.0526797 -0.002 -0.0197897)
(0.0559963 -0.002 0.0142092)
(0.0542043 -0.002 -0.0199846)
(0.0575325 -0.002 0.0142372)
(0.0557291 -0.002 -0.020173)
(0.0590684 -0.002 0.014259)
(0.0572544 -0.002 -0.0203552)
(0.060604 -0.002 0.0142747)
(0.0587799 -0.002 -0.0205313)
(0.0603057 -0.002 -0.0207016)
(0.0621393 -0.002 0.0142845)
(0.0618319 -0.002 -0.0208662)
(0.0636743 -0.002 0.0142887)
(0.065209 -0.002 0.0142873)
(0.0633583 -0.002 -0.0210252)
(0.0667434 -0.002 0.0142806)
(0.064885 -0.002 -0.0211789)
(0.0682775 -0.002 0.0142686)
(0.066412 -0.002 -0.0213274)
(0.0698114 -0.002 0.0142516)
(0.0679393 -0.002 -0.0214708)
(0.071345 -0.002 0.0142296)
(0.0694668 -0.002 -0.0216092)
(0.0728784 -0.002 0.0142028)
(0.0709945 -0.002 -0.0217429)
(0.0744115 -0.002 0.0141713)
(0.0725225 -0.002 -0.0218718)
(0.0759444 -0.002 0.0141353)
(0.0740508 -0.002 -0.0219962)
(0.077477 -0.002 0.0140948)
(0.0755793 -0.002 -0.0221161)
(0.0790094 -0.002 0.01405)
(0.077108 -0.002 -0.0222317)
(0.0786369 -0.002 -0.0223431)
(0.0805416 -0.002 0.0140009)
(0.0820736 -0.002 0.0139477)
(0.0801661 -0.002 -0.0224503)
(0.0816954 -0.002 -0.0225535)
(0.0836054 -0.002 0.0138905)
(0.0851369 -0.002 0.0138293)
(0.083225 -0.002 -0.0226528)
(0.0847548 -0.002 -0.0227481)
(0.0866683 -0.002 0.0137642)
(0.0881995 -0.002 0.0136954)
(0.0862847 -0.002 -0.0228398)
(0.0897304 -0.002 0.0136229)
(0.0878149 -0.002 -0.0229277)
(0.0912612 -0.002 0.0135468)
(0.0893452 -0.002 -0.023012)
(0.0908758 -0.002 -0.0230928)
(0.0927918 -0.002 0.0134672)
(0.0924065 -0.002 -0.0231701)
(0.0943222 -0.002 0.0133841)
(0.0939374 -0.002 -0.0232441)
(0.0958524 -0.002 0.0132976)
(0.0954684 -0.002 -0.0233148)
(0.0973825 -0.002 0.0132079)
(0.0969997 -0.002 -0.0233822)
(0.0989124 -0.002 0.0131148)
(0.0985311 -0.002 -0.0234464)
(0.100442 -0.002 0.0130187)
(0.100063 -0.002 -0.0235076)
(0.101972 -0.002 0.0129194)
(0.103501 -0.002 0.012817)
(0.101594 -0.002 -0.0235656)
(0.10503 -0.002 0.0127117)
(0.103126 -0.002 -0.0236207)
(0.106559 -0.002 0.0126035)
(0.104658 -0.002 -0.0236729)
(0.108088 -0.002 0.0124923)
(0.10619 -0.002 -0.0237222)
(0.109617 -0.002 0.0123784)
(0.107723 -0.002 -0.0237687)
(0.111146 -0.002 0.0122617)
(0.109255 -0.002 -0.0238124)
(0.112674 -0.002 0.0121423)
(0.110788 -0.002 -0.0238535)
(0.112321 -0.002 -0.0238918)
(0.114203 -0.002 0.0120203)
(0.113853 -0.002 -0.0239276)
(0.115731 -0.002 0.0118956)
(0.115387 -0.002 -0.0239608)
(0.117259 -0.002 0.0117684)
(0.11692 -0.002 -0.0239915)
(0.118787 -0.002 0.0116386)
(0.120315 -0.002 0.0115065)
(0.118453 -0.002 -0.0240197)
(0.119986 -0.002 -0.0240456)
(0.121843 -0.002 0.0113718)
(0.12152 -0.002 -0.024069)
(0.12337 -0.002 0.0112349)
(0.123054 -0.002 -0.0240901)
(0.124898 -0.002 0.0110955)
(0.124587 -0.002 -0.0241089)
(0.126425 -0.002 0.0109539)
(0.126121 -0.002 -0.0241255)
(0.127952 -0.002 0.0108101)
(0.127655 -0.002 -0.0241398)
(0.129479 -0.002 0.010664)
(0.129189 -0.002 -0.024152)
(0.131006 -0.002 0.0105158)
(0.130724 -0.002 -0.0241621)
(0.132533 -0.002 0.0103654)
(0.132258 -0.002 -0.02417)
(0.13406 -0.002 0.0102129)
(0.133792 -0.002 -0.0241759)
(0.135587 -0.002 0.0100583)
(0.135327 -0.002 -0.0241798)
(0.137113 -0.002 0.00990177)
(0.136862 -0.002 -0.0241816)
(0.13864 -0.002 0.00974321)
(0.138396 -0.002 -0.0241815)
(0.140166 -0.002 0.00958268)
(0.139931 -0.002 -0.0241795)
(0.141692 -0.002 0.00942023)
(0.141466 -0.002 -0.0241756)
(0.143218 -0.002 0.00925587)
(0.143001 -0.002 -0.0241698)
(0.144744 -0.002 0.00908966)
(0.144537 -0.002 -0.0241622)
(0.14627 -0.002 0.00892161)
(0.146072 -0.002 -0.0241527)
(0.147796 -0.002 0.00875174)
(0.149322 -0.002 0.00858011)
(0.147607 -0.002 -0.0241415)
(0.150848 -0.002 0.00840672)
(0.149143 -0.002 -0.0241285)
(0.152373 -0.002 0.00823161)
(0.150678 -0.002 -0.0241139)
(0.153899 -0.002 0.0080548)
(0.152214 -0.002 -0.0240975)
(0.155424 -0.002 0.00787632)
(0.153749 -0.002 -0.0240794)
(0.15695 -0.002 0.0076962)
(0.155285 -0.002 -0.0240597)
(0.158475 -0.002 0.00751446)
(0.156821 -0.002 -0.0240384)
(0.16 -0.002 0.00733112)
(0.158357 -0.002 -0.0240155)
(0.161525 -0.002 0.00714621)
(0.159893 -0.002 -0.023991)
(0.16305 -0.002 0.00695974)
(0.161429 -0.002 -0.023965)
(0.164575 -0.002 0.00677174)
(0.162966 -0.002 -0.0239374)
(0.1661 -0.002 0.00658225)
(0.164502 -0.002 -0.0239083)
(0.167625 -0.002 0.00639127)
(0.166038 -0.002 -0.0238778)
(0.169149 -0.002 0.00619882)
(0.167575 -0.002 -0.0238458)
(0.170674 -0.002 0.00600493)
(0.169111 -0.002 -0.0238123)
(0.172198 -0.002 0.00580961)
(0.170648 -0.002 -0.0237774)
(0.173723 -0.002 0.00561288)
(0.172184 -0.002 -0.0237411)
(0.175247 -0.002 0.00541477)
(0.173721 -0.002 -0.0237034)
(0.175258 -0.002 -0.0236644)
(0.176772 -0.002 0.00521529)
(0.178296 -0.002 0.00501446)
(0.176795 -0.002 -0.023624)
(0.178332 -0.002 -0.0235822)
(0.17982 -0.002 0.00481229)
(0.181344 -0.002 0.00460879)
(0.179869 -0.002 -0.0235392)
(0.181406 -0.002 -0.0234948)
(0.182868 -0.002 0.004404)
(0.184392 -0.002 0.00419792)
(0.182943 -0.002 -0.0234491)
(0.185916 -0.002 0.00399056)
(0.18448 -0.002 -0.0234022)
(0.18744 -0.002 0.00378195)
(0.186018 -0.002 -0.023354)
(0.188964 -0.002 0.00357208)
(0.187555 -0.002 -0.0233046)
(0.190487 -0.002 0.00336098)
(0.189092 -0.002 -0.0232539)
(0.192011 -0.002 0.00314867)
(0.19063 -0.002 -0.023202)
(0.193534 -0.002 0.00293516)
(0.192167 -0.002 -0.0231489)
(0.195058 -0.002 0.00272045)
(0.193705 -0.002 -0.0230946)
(0.196581 -0.002 0.00250455)
(0.195243 -0.002 -0.0230392)
(0.198105 -0.002 0.00228748)
(0.19678 -0.002 -0.0229825)
(0.199628 -0.002 0.00206926)
(0.198318 -0.002 -0.0229247)
(0.201151 -0.002 0.00184988)
(0.199856 -0.002 -0.0228658)
(0.202675 -0.002 0.00162936)
(0.201394 -0.002 -0.0228057)
(0.204198 -0.002 0.00140772)
(0.202932 -0.002 -0.0227445)
(0.205721 -0.002 0.00118495)
(0.20447 -0.002 -0.0226821)
(0.207244 -0.002 0.000961064)
(0.206008 -0.002 -0.0226187)
(0.207546 -0.002 -0.0225541)
(0.208767 -0.002 0.000736077)
(0.21029 -0.002 0.000509992)
(0.209084 -0.002 -0.0224885)
(0.210623 -0.002 -0.0224217)
(0.211813 -0.002 0.000282824)
(0.213335 -0.002 5.45614e-05)
(0.212161 -0.002 -0.0223539)
(0.214858 -0.002 -0.000174769)
(0.213699 -0.002 -0.022285)
(0.216381 -0.002 -0.000405173)
(0.215238 -0.002 -0.022215)
(0.217904 -0.002 -0.000636641)
(0.216776 -0.002 -0.022144)
(0.219426 -0.002 -0.000869167)
(0.218315 -0.002 -0.0220719)
(0.220949 -0.002 -0.00110274)
(0.219853 -0.002 -0.0219987)
(0.222471 -0.002 -0.00133736)
(0.221392 -0.002 -0.0219245)
(0.222931 -0.002 -0.0218493)
(0.223993 -0.002 -0.00157303)
(0.225516 -0.002 -0.00180974)
(0.22447 -0.002 -0.021773)
(0.227038 -0.002 -0.00204749)
(0.226008 -0.002 -0.0216957)
(0.22856 -0.002 -0.00228627)
(0.227547 -0.002 -0.0216173)
(0.230083 -0.002 -0.00252608)
(0.229086 -0.002 -0.0215379)
(0.231605 -0.002 -0.00276692)
(0.230625 -0.002 -0.0214575)
(0.233127 -0.002 -0.00300879)
(0.232164 -0.002 -0.0213761)
(0.234649 -0.002 -0.00325168)
(0.233703 -0.002 -0.0212936)
(0.236171 -0.002 -0.0034956)
(0.235243 -0.002 -0.0212101)
(0.237693 -0.002 -0.00374053)
(0.236782 -0.002 -0.0211256)
(0.239215 -0.002 -0.00398649)
(0.238321 -0.002 -0.0210401)
(0.240736 -0.002 -0.00423347)
(0.23986 -0.002 -0.0209535)
(0.2414 -0.002 -0.020866)
(0.242258 -0.002 -0.00448147)
(0.242939 -0.002 -0.0207774)
(0.24378 -0.002 -0.0047305)
(0.245302 -0.002 -0.00498055)
(0.244478 -0.002 -0.0206877)
(0.246018 -0.002 -0.0205971)
(0.246823 -0.002 -0.00523162)
(0.247558 -0.002 -0.0205054)
(0.248345 -0.002 -0.00548373)
(0.249097 -0.002 -0.0204127)
(0.249866 -0.002 -0.00573685)
(0.250637 -0.002 -0.020319)
(0.251388 -0.002 -0.00599101)
(0.252177 -0.002 -0.0202242)
(0.252909 -0.002 -0.0062462)
(0.253716 -0.002 -0.0201284)
(0.25443 -0.002 -0.00650243)
(0.255256 -0.002 -0.0200316)
(0.255952 -0.002 -0.0067597)
(0.256796 -0.002 -0.0199337)
(0.257473 -0.002 -0.00701801)
(0.258336 -0.002 -0.0198348)
(0.258994 -0.002 -0.00727737)
(0.259876 -0.002 -0.0197348)
(0.260515 -0.002 -0.00753778)
(0.262956 -0.002 -0.0195316)
(0.261416 -0.002 -0.0196337)
(0.262036 -0.002 -0.00779924)
(0.263557 -0.002 -0.00806177)
(0.266037 -0.002 -0.0193242)
(0.264496 -0.002 -0.0194285)
(0.265078 -0.002 -0.00832536)
(0.266599 -0.002 -0.00859002)
(0.267577 -0.002 -0.0192189)
(0.26812 -0.002 -0.00885577)
(0.269641 -0.002 -0.00912259)
(0.269117 -0.002 -0.0191125)
(0.271162 -0.002 -0.00939052)
(0.270658 -0.002 -0.019005)
(0.272682 -0.002 -0.00965954)
(0.273739 -0.002 -0.0187867)
(0.272198 -0.002 -0.0188964)
(0.274203 -0.002 -0.00992966)
(0.27682 -0.002 -0.018564)
(0.275279 -0.002 -0.0186759)
(0.275723 -0.002 -0.0102009)
(0.278361 -0.002 -0.0184509)
(0.277244 -0.002 -0.0104733)
(0.278764 -0.002 -0.0107467)
(0.279901 -0.002 -0.0183367)
(0.280285 -0.002 -0.0110214)
(0.281442 -0.002 -0.0182214)
(0.281805 -0.002 -0.0112972)
(0.282983 -0.002 -0.0181049)
(0.283325 -0.002 -0.0115741)
(0.284524 -0.002 -0.0179872)
(0.284845 -0.002 -0.0118522)
(0.287606 -0.002 -0.0177483)
(0.286065 -0.002 -0.0178683)
(0.286366 -0.002 -0.0121315)
(0.287886 -0.002 -0.0124119)
(0.289147 -0.002 -0.0176271)
(0.289406 -0.002 -0.0126936)
(0.290688 -0.002 -0.0175046)
(0.290926 -0.002 -0.0129765)
(0.29223 -0.002 -0.017381)
(0.292445 -0.002 -0.0132606)
(0.295312 -0.002 -0.0171299)
(0.293771 -0.002 -0.0172561)
(0.293965 -0.002 -0.0135459)
(0.295485 -0.002 -0.0138325)
(0.296854 -0.002 -0.0170025)
(0.297005 -0.002 -0.0141203)
(0.298395 -0.002 -0.0168739)
(0.298524 -0.002 -0.0144094)
(0.299937 -0.002 -0.0167439)
(0.300044 -0.002 -0.0146997)
(0.301478 -0.002 -0.0166127)
(0.301563 -0.002 -0.0149914)
(0.303083 -0.002 -0.0152844)
(0.30302 -0.002 -0.0164801)
(0.00492188 -0.382 0.00605973)
(0.00278852 -0.382 -0.00536201)
(0.0042615 -0.382 -0.00654101)
(0.0064998 -0.382 0.00688329)
(0.0057447 -0.382 -0.007525)
(0.00807114 -0.382 0.00758114)
(0.00723448 -0.382 -0.00838328)
(0.00963776 -0.382 0.00818884)
(0.008729 -0.382 -0.0091514)
(0.0112008 -0.382 0.00872752)
(0.0102271 -0.382 -0.00985051)
(0.0127609 -0.382 0.00921097)
(0.0117281 -0.382 -0.0104944)
(0.0143186 -0.382 0.00964878)
(0.0132316 -0.382 -0.0110926)
(0.0158743 -0.382 0.0100479)
(0.014737 -0.382 -0.0116522)
(0.0174282 -0.382 0.0104137)
(0.0162442 -0.382 -0.0121784)
(0.0189806 -0.382 0.0107503)
(0.0177529 -0.382 -0.0126754)
(0.019263 -0.382 -0.0131464)
(0.0205316 -0.382 0.0110608)
(0.0207743 -0.382 -0.0135941)
(0.0220815 -0.382 0.0113481)
(0.0222867 -0.382 -0.0140206)
(0.0236302 -0.382 0.0116142)
(0.0238001 -0.382 -0.014428)
(0.0251779 -0.382 0.0118611)
(0.0267247 -0.382 0.0120903)
(0.0253145 -0.382 -0.0148176)
(0.0282706 -0.382 0.0123032)
(0.0268297 -0.382 -0.0151909)
(0.0298157 -0.382 0.0125009)
(0.0283457 -0.382 -0.015549)
(0.0313601 -0.382 0.0126844)
(0.0298624 -0.382 -0.0158929)
(0.0329038 -0.382 0.0128546)
(0.0313799 -0.382 -0.0162236)
(0.0344468 -0.382 0.0130124)
(0.0328979 -0.382 -0.0165418)
(0.0359892 -0.382 0.0131584)
(0.0344167 -0.382 -0.0168482)
(0.0375311 -0.382 0.0132932)
(0.0359359 -0.382 -0.0171435)
(0.0390723 -0.382 0.0134175)
(0.0374558 -0.382 -0.0174282)
(0.0406131 -0.382 0.0135318)
(0.0389762 -0.382 -0.0177029)
(0.0421534 -0.382 0.0136365)
(0.040497 -0.382 -0.017968)
(0.0436931 -0.382 0.013732)
(0.0420184 -0.382 -0.018224)
(0.0452325 -0.382 0.0138188)
(0.0435402 -0.382 -0.0184712)
(0.0467713 -0.382 0.0138973)
(0.0450624 -0.382 -0.0187101)
(0.0483098 -0.382 0.0139677)
(0.0465851 -0.382 -0.0189409)
(0.0498478 -0.382 0.0140303)
(0.0481082 -0.382 -0.019164)
(0.0513855 -0.382 0.0140856)
(0.0496317 -0.382 -0.0193796)
(0.0529228 -0.382 0.0141336)
(0.0511555 -0.382 -0.0195881)
(0.0544597 -0.382 0.0141748)
(0.0526797 -0.382 -0.0197897)
(0.0559963 -0.382 0.0142092)
(0.0542043 -0.382 -0.0199846)
(0.0575325 -0.382 0.0142372)
(0.0557291 -0.382 -0.020173)
(0.0590684 -0.382 0.014259)
(0.0572544 -0.382 -0.0203552)
(0.060604 -0.382 0.0142747)
(0.0587799 -0.382 -0.0205313)
(0.0603057 -0.382 -0.0207016)
(0.0621393 -0.382 0.0142845)
(0.0618319 -0.382 -0.0208662)
(0.0636743 -0.382 0.0142887)
(0.065209 -0.382 0.0142873)
(0.0633583 -0.382 -0.0210252)
(0.0667434 -0.382 0.0142806)
(0.064885 -0.382 -0.0211789)
(0.0682775 -0.382 0.0142686)
(0.066412 -0.382 -0.0213274)
(0.0698114 -0.382 0.0142516)
(0.0679393 -0.382 -0.0214708)
(0.071345 -0.382 0.0142296)
(0.0694668 -0.382 -0.0216092)
(0.0728784 -0.382 0.0142028)
(0.0709945 -0.382 -0.0217429)
(0.0744115 -0.382 0.0141713)
(0.0725225 -0.382 -0.0218718)
(0.0759444 -0.382 0.0141353)
(0.0740508 -0.382 -0.0219962)
(0.077477 -0.382 0.0140948)
(0.0755793 -0.382 -0.0221161)
(0.0790094 -0.382 0.01405)
(0.077108 -0.382 -0.0222317)
(0.0786369 -0.382 -0.0223431)
(0.0805416 -0.382 0.0140009)
(0.0820736 -0.382 0.0139477)
(0.0801661 -0.382 -0.0224503)
(0.0816954 -0.382 -0.0225535)
(0.0836054 -0.382 0.0138905)
(0.0851369 -0.382 0.0138293)
(0.083225 -0.382 -0.0226528)
(0.0847548 -0.382 -0.0227481)
(0.0866683 -0.382 0.0137642)
(0.0881995 -0.382 0.0136954)
(0.0862847 -0.382 -0.0228398)
(0.0897304 -0.382 0.0136229)
(0.0878149 -0.382 -0.0229277)
(0.0912612 -0.382 0.0135468)
(0.0893452 -0.382 -0.023012)
(0.0908758 -0.382 -0.0230928)
(0.0927918 -0.382 0.0134672)
(0.0924065 -0.382 -0.0231701)
(0.0943222 -0.382 0.0133841)
(0.0939374 -0.382 -0.0232441)
(0.0958524 -0.382 0.0132976)
(0.0954684 -0.382 -0.0233148)
(0.0973825 -0.382 0.0132079)
(0.0969997 -0.382 -0.0233822)
(0.0989124 -0.382 0.0131148)
(0.0985311 -0.382 -0.0234464)
(0.100442 -0.382 0.0130187)
(0.100063 -0.382 -0.0235076)
(0.101972 -0.382 0.0129194)
(0.103501 -0.382 0.012817)
(0.101594 -0.382 -0.0235656)
(0.10503 -0.382 0.0127117)
(0.103126 -0.382 -0.0236207)
(0.106559 -0.382 0.0126035)
(0.104658 -0.382 -0.0236729)
(0.108088 -0.382 0.0124923)
(0.10619 -0.382 -0.0237222)
(0.109617 -0.382 0.0123784)
(0.107723 -0.382 -0.0237687)
(0.111146 -0.382 0.0122617)
(0.109255 -0.382 -0.0238124)
(0.112674 -0.382 0.0121423)
(0.110788 -0.382 -0.0238535)
(0.112321 -0.382 -0.0238918)
(0.114203 -0.382 0.0120203)
(0.113853 -0.382 -0.0239276)
(0.115731 -0.382 0.0118956)
(0.115387 -0.382 -0.0239608)
(0.117259 -0.382 0.0117684)
(0.11692 -0.382 -0.0239915)
(0.118787 -0.382 0.0116386)
(0.120315 -0.382 0.0115065)
(0.118453 -0.382 -0.0240197)
(0.119986 -0.382 -0.0240456)
(0.121843 -0.382 0.0113718)
(0.12152 -0.382 -0.024069)
(0.12337 -0.382 0.0112349)
(0.123054 -0.382 -0.0240901)
(0.124898 -0.382 0.0110955)
(0.124587 -0.382 -0.0241089)
(0.126425 -0.382 0.0109539)
(0.126121 -0.382 -0.0241255)
(0.127952 -0.382 0.0108101)
(0.127655 -0.382 -0.0241398)
(0.129479 -0.382 0.010664)
(0.129189 -0.382 -0.024152)
(0.131006 -0.382 0.0105158)
(0.130724 -0.382 -0.0241621)
(0.132533 -0.382 0.0103654)
(0.132258 -0.382 -0.02417)
(0.13406 -0.382 0.0102129)
(0.133792 -0.382 -0.0241759)
(0.135587 -0.382 0.0100583)
(0.135327 -0.382 -0.0241798)
(0.137113 -0.382 0.00990177)
(0.136862 -0.382 -0.0241816)
(0.13864 -0.382 0.00974321)
(0.138396 -0.382 -0.0241815)
(0.140166 -0.382 0.00958268)
(0.139931 -0.382 -0.0241795)
(0.141692 -0.382 0.00942023)
(0.141466 -0.382 -0.0241756)
(0.143218 -0.382 0.00925587)
(0.143001 -0.382 -0.0241698)
(0.144744 -0.382 0.00908966)
(0.144537 -0.382 -0.0241622)
(0.14627 -0.382 0.00892161)
(0.146072 -0.382 -0.0241527)
(0.147796 -0.382 0.00875174)
(0.149322 -0.382 0.00858011)
(0.147607 -0.382 -0.0241415)
(0.150848 -0.382 0.00840672)
(0.149143 -0.382 -0.0241285)
(0.152373 -0.382 0.00823161)
(0.150678 -0.382 -0.0241139)
(0.153899 -0.382 0.0080548)
(0.152214 -0.382 -0.0240975)
(0.155424 -0.382 0.00787632)
(0.153749 -0.382 -0.0240794)
(0.15695 -0.382 0.0076962)
(0.155285 -0.382 -0.0240597)
(0.158475 -0.382 0.00751446)
(0.156821 -0.382 -0.0240384)
(0.16 -0.382 0.00733112)
(0.158357 -0.382 -0.0240155)
(0.161525 -0.382 0.00714621)
(0.159893 -0.382 -0.023991)
(0.16305 -0.382 0.00695974)
(0.161429 -0.382 -0.023965)
(0.164575 -0.382 0.00677174)
(0.162966 -0.382 -0.0239374)
(0.1661 -0.382 0.00658225)
(0.164502 -0.382 -0.0239083)
(0.167625 -0.382 0.00639127)
(0.166038 -0.382 -0.0238778)
(0.169149 -0.382 0.00619882)
(0.167575 -0.382 -0.0238458)
(0.170674 -0.382 0.00600493)
(0.169111 -0.382 -0.0238123)
(0.172198 -0.382 0.00580961)
(0.170648 -0.382 -0.0237774)
(0.173723 -0.382 0.00561288)
(0.172184 -0.382 -0.0237411)
(0.175247 -0.382 0.00541477)
(0.173721 -0.382 -0.0237034)
(0.175258 -0.382 -0.0236644)
(0.176772 -0.382 0.00521529)
(0.178296 -0.382 0.00501446)
(0.176795 -0.382 -0.023624)
(0.178332 -0.382 -0.0235822)
(0.17982 -0.382 0.00481229)
(0.181344 -0.382 0.00460879)
(0.179869 -0.382 -0.0235392)
(0.181406 -0.382 -0.0234948)
(0.182868 -0.382 0.004404)
(0.184392 -0.382 0.00419792)
(0.182943 -0.382 -0.0234491)
(0.185916 -0.382 0.00399056)
(0.18448 -0.382 -0.0234022)
(0.18744 -0.382 0.00378195)
(0.186018 -0.382 -0.023354)
(0.188964 -0.382 0.00357208)
(0.187555 -0.382 -0.0233046)
(0.190487 -0.382 0.00336098)
(0.189092 -0.382 -0.0232539)
(0.192011 -0.382 0.00314867)
(0.19063 -0.382 -0.023202)
(0.193534 -0.382 0.00293516)
(0.192167 -0.382 -0.0231489)
(0.195058 -0.382 0.00272045)
(0.193705 -0.382 -0.0230946)
(0.196581 -0.382 0.00250455)
(0.195243 -0.382 -0.0230392)
(0.198105 -0.382 0.00228748)
(0.19678 -0.382 -0.0229825)
(0.199628 -0.382 0.00206926)
(0.198318 -0.382 -0.0229247)
(0.201151 -0.382 0.00184988)
(0.199856 -0.382 -0.0228658)
(0.202675 -0.382 0.00162936)
(0.201394 -0.382 -0.0228057)
(0.204144 -0.382 0.00141722)
(0.202986 -0.382 -0.0227404)
(0.205563 -0.382 0.00121948)
(0.204631 -0.382 -0.0226622)
(0.207089 -0.382 0.00101595)
(0.206168 -0.382 -0.0225782)
(0.208615 -0.382 0.000811304)
(0.207705 -0.382 -0.0224931)
(0.210141 -0.382 0.00060557)
(0.209243 -0.382 -0.0224069)
(0.211667 -0.382 0.000398734)
(0.21078 -0.382 -0.0223197)
(0.212317 -0.382 -0.0222313)
(0.213193 -0.382 0.000190825)
(0.214718 -0.382 -1.81688e-05)
(0.213855 -0.382 -0.0221419)
(0.216244 -0.382 -0.000228215)
(0.215392 -0.382 -0.0220514)
(0.21777 -0.382 -0.000439346)
(0.21693 -0.382 -0.0219598)
(0.219296 -0.382 -0.000651525)
(0.218468 -0.382 -0.0218672)
(0.220821 -0.382 -0.000864762)
(0.220005 -0.382 -0.0217735)
(0.221543 -0.382 -0.0216788)
(0.222347 -0.382 -0.00107904)
(0.223872 -0.382 -0.00129438)
(0.223081 -0.382 -0.021583)
(0.224618 -0.382 -0.0214862)
(0.225398 -0.382 -0.00151075)
(0.226156 -0.382 -0.0213883)
(0.226923 -0.382 -0.00172815)
(0.228449 -0.382 -0.00194659)
(0.227694 -0.382 -0.0212894)
(0.229974 -0.382 -0.00216607)
(0.229232 -0.382 -0.0211895)
(0.2315 -0.382 -0.00238657)
(0.23077 -0.382 -0.0210886)
(0.233025 -0.382 -0.0026081)
(0.232308 -0.382 -0.0209866)
(0.23455 -0.382 -0.00283066)
(0.233846 -0.382 -0.0208836)
(0.236075 -0.382 -0.00305423)
(0.235384 -0.382 -0.0207796)
(0.237601 -0.382 -0.00327884)
(0.236922 -0.382 -0.0206745)
(0.239126 -0.382 -0.00350447)
(0.23846 -0.382 -0.0205685)
(0.240651 -0.382 -0.00373111)
(0.239998 -0.382 -0.0204614)
(0.241536 -0.382 -0.0203533)
(0.242176 -0.382 -0.00395878)
(0.243074 -0.382 -0.0202441)
(0.243701 -0.382 -0.00418748)
(0.245226 -0.382 -0.00441719)
(0.244613 -0.382 -0.020134)
(0.246151 -0.382 -0.0200228)
(0.246751 -0.382 -0.00464794)
(0.248276 -0.382 -0.00487971)
(0.247689 -0.382 -0.0199106)
(0.249228 -0.382 -0.0197973)
(0.249801 -0.382 -0.0051125)
(0.250766 -0.382 -0.0196831)
(0.251326 -0.382 -0.00534634)
(0.252305 -0.382 -0.0195678)
(0.25285 -0.382 -0.0055812)
(0.253843 -0.382 -0.0194514)
(0.255382 -0.382 -0.019334)
(0.254375 -0.382 -0.0058171)
(0.2559 -0.382 -0.00605404)
(0.25692 -0.382 -0.0192156)
(0.257425 -0.382 -0.00629202)
(0.258459 -0.382 -0.0190961)
(0.258949 -0.382 -0.00653106)
(0.259998 -0.382 -0.0189756)
(0.260474 -0.382 -0.00677114)
(0.261536 -0.382 -0.018854)
(0.261998 -0.382 -0.00701228)
(0.263075 -0.382 -0.0187314)
(0.263523 -0.382 -0.00725448)
(0.264614 -0.382 -0.0186077)
(0.265047 -0.382 -0.00749775)
(0.266153 -0.382 -0.0184829)
(0.266572 -0.382 -0.0077421)
(0.267692 -0.382 -0.018357)
(0.268096 -0.382 -0.00798752)
(0.26923 -0.382 -0.01823)
(0.269621 -0.382 -0.00823403)
(0.271145 -0.382 -0.00848162)
(0.270769 -0.382 -0.018102)
(0.272669 -0.382 -0.00873032)
(0.272308 -0.382 -0.0179729)
(0.274193 -0.382 -0.00898013)
(0.273847 -0.382 -0.0178426)
(0.275386 -0.382 -0.0177112)
(0.275717 -0.382 -0.00923105)
(0.276926 -0.382 -0.0175788)
(0.277242 -0.382 -0.00948309)
(0.278465 -0.382 -0.0174451)
(0.278766 -0.382 -0.00973626)
(0.280004 -0.382 -0.0173104)
(0.28029 -0.382 -0.00999058)
(0.281543 -0.382 -0.0171745)
(0.281814 -0.382 -0.010246)
(0.283083 -0.382 -0.0170374)
(0.283338 -0.382 -0.0105027)
(0.284622 -0.382 -0.0168992)
(0.284862 -0.382 -0.0107604)
(0.286161 -0.382 -0.0167598)
(0.286385 -0.382 -0.0110194)
(0.287701 -0.382 -0.0166192)
(0.287909 -0.382 -0.0112796)
(0.28924 -0.382 -0.0164774)
(0.289433 -0.382 -0.0115409)
(0.29078 -0.382 -0.0163344)
(0.292319 -0.382 -0.0161902)
(0.290957 -0.382 -0.0118035)
(0.29248 -0.382 -0.0120673)
(0.293859 -0.382 -0.0160447)
(0.294004 -0.382 -0.0123323)
(0.295399 -0.382 -0.015898)
(0.296939 -0.382 -0.01575)
(0.295528 -0.382 -0.0125985)
(0.298478 -0.382 -0.0156008)
(0.297051 -0.382 -0.012866)
(0.298575 -0.382 -0.0131348)
(0.300018 -0.382 -0.0154503)
(0.300098 -0.382 -0.0134049)
(0.301558 -0.382 -0.0152985)
(0.301621 -0.382 -0.0136763)
(0.303145 -0.382 -0.0139489)
(0.303098 -0.382 -0.0151454)
(0.304582 -0.078 -0.0159625)
(0.304653 -0.306 -0.0146069)
(0.30437 -0.154 -0.0200015)
(0.30437 -0.23 -0.0200015)
)


// edges:

802
(
(0 1)
(1 4)
(5 0)
(4 6)
(7 5)
(8 1)
(0 9)
(10 9)
(7 11)
(12 10)
(11 13)
(14 12)
(13 15)
(16 14)
(15 17)
(18 16)
(17 19)
(20 18)
(19 21)
(22 20)
(21 23)
(24 22)
(23 25)
(26 24)
(25 27)
(28 26)
(27 29)
(30 28)
(31 30)
(29 32)
(33 31)
(32 34)
(35 33)
(34 36)
(37 35)
(36 38)
(38 39)
(40 37)
(39 41)
(42 40)
(41 43)
(44 42)
(43 45)
(46 44)
(45 47)
(48 46)
(47 49)
(50 48)
(49 51)
(52 50)
(51 53)
(54 52)
(53 55)
(56 54)
(55 57)
(58 56)
(57 59)
(60 58)
(59 61)
(62 60)
(61 63)
(64 62)
(63 65)
(66 64)
(65 67)
(68 66)
(67 69)
(70 68)
(69 71)
(72 70)
(71 73)
(74 72)
(73 75)
(76 74)
(75 77)
(78 76)
(77 79)
(80 78)
(79 81)
(82 80)
(81 83)
(84 82)
(85 84)
(83 86)
(87 85)
(86 88)
(88 89)
(90 87)
(89 91)
(92 90)
(91 93)
(94 92)
(93 95)
(96 94)
(95 97)
(98 96)
(97 99)
(100 98)
(99 101)
(102 100)
(101 103)
(104 102)
(103 105)
(106 104)
(105 107)
(108 106)
(109 108)
(107 110)
(110 111)
(112 109)
(113 112)
(111 114)
(114 115)
(116 113)
(117 116)
(115 118)
(118 119)
(120 117)
(119 121)
(122 120)
(121 123)
(124 122)
(125 124)
(123 126)
(127 125)
(126 128)
(129 127)
(128 130)
(131 129)
(130 132)
(133 131)
(132 134)
(135 133)
(134 136)
(137 135)
(136 138)
(138 139)
(140 137)
(139 141)
(142 140)
(141 143)
(144 142)
(143 145)
(146 144)
(145 147)
(148 146)
(147 149)
(150 148)
(149 151)
(152 150)
(153 152)
(151 154)
(155 153)
(154 156)
(157 155)
(156 158)
(159 157)
(158 160)
(160 161)
(162 159)
(163 162)
(161 164)
(165 163)
(164 166)
(167 165)
(166 168)
(169 167)
(168 170)
(171 169)
(170 172)
(173 171)
(172 174)
(175 173)
(174 176)
(177 175)
(176 178)
(179 177)
(178 180)
(181 179)
(180 182)
(183 181)
(182 184)
(185 183)
(184 186)
(187 185)
(186 188)
(189 187)
(188 190)
(191 189)
(190 192)
(193 191)
(192 194)
(195 193)
(194 196)
(197 195)
(196 198)
(198 199)
(200 197)
(199 201)
(202 200)
(201 203)
(204 202)
(203 205)
(206 204)
(205 207)
(208 206)
(207 209)
(210 208)
(209 211)
(212 210)
(211 213)
(214 212)
(213 215)
(216 214)
(215 217)
(218 216)
(217 219)
(220 218)
(219 221)
(222 220)
(221 223)
(224 222)
(223 225)
(226 224)
(225 227)
(228 226)
(227 229)
(230 228)
(229 231)
(232 230)
(231 233)
(234 232)
(235 234)
(233 236)
(236 237)
(238 235)
(239 238)
(237 240)
(240 241)
(242 239)
(243 242)
(241 244)
(244 245)
(246 243)
(245 247)
(248 246)
(247 249)
(250 248)
(249 251)
(252 250)
(251 253)
(254 252)
(253 255)
(256 254)
(255 257)
(258 256)
(257 259)
(260 258)
(259 261)
(262 260)
(261 263)
(264 262)
(263 265)
(266 264)
(265 267)
(268 266)
(267 269)
(270 268)
(269 271)
(272 270)
(271 273)
(274 272)
(273 275)
(276 274)
(277 276)
(275 278)
(278 279)
(280 277)
(281 280)
(279 282)
(282 283)
(284 281)
(283 285)
(286 284)
(285 287)
(288 286)
(287 289)
(290 288)
(289 291)
(292 290)
(291 293)
(294 292)
(293 295)
(296 294)
(297 296)
(295 298)
(298 299)
(300 297)
(299 301)
(302 300)
(301 303)
(304 302)
(303 305)
(306 304)
(305 307)
(308 306)
(307 309)
(310 308)
(309 311)
(312 310)
(311 313)
(314 312)
(313 315)
(316 314)
(315 317)
(318 316)
(317 319)
(320 318)
(321 320)
(319 322)
(323 321)
(322 324)
(324 325)
(326 323)
(327 326)
(325 328)
(329 327)
(328 330)
(331 329)
(330 332)
(333 331)
(332 334)
(335 333)
(334 336)
(337 335)
(336 338)
(339 337)
(338 340)
(341 339)
(340 342)
(343 341)
(342 344)
(345 343)
(344 346)
(347 348)
(348 345)
(346 349)
(349 350)
(351 352)
(352 347)
(350 353)
(353 354)
(355 351)
(354 356)
(356 357)
(358 355)
(357 359)
(360 358)
(359 361)
(362 363)
(363 360)
(361 364)
(365 366)
(366 362)
(364 367)
(368 365)
(367 369)
(369 370)
(371 368)
(370 372)
(373 371)
(372 374)
(375 373)
(374 376)
(377 375)
(376 378)
(379 380)
(380 377)
(378 381)
(381 382)
(383 379)
(382 384)
(385 383)
(384 386)
(387 385)
(386 388)
(389 390)
(390 387)
(388 391)
(391 392)
(393 389)
(392 394)
(395 393)
(394 396)
(397 395)
(396 398)
(399 397)
(398 400)
(400 401)
(402 399)
(401 2)
(2 402)
(6 403)
(8 404)
(404 405)
(406 403)
(405 407)
(408 406)
(407 409)
(410 408)
(409 411)
(412 410)
(411 413)
(414 412)
(413 415)
(416 414)
(415 417)
(418 416)
(417 419)
(420 418)
(419 421)
(422 420)
(421 423)
(423 424)
(425 422)
(424 426)
(427 425)
(426 428)
(429 427)
(428 430)
(431 429)
(432 431)
(430 433)
(434 432)
(433 435)
(436 434)
(435 437)
(438 436)
(437 439)
(440 438)
(439 441)
(442 440)
(441 443)
(444 442)
(443 445)
(446 444)
(445 447)
(448 446)
(447 449)
(450 448)
(449 451)
(452 450)
(451 453)
(454 452)
(453 455)
(456 454)
(455 457)
(458 456)
(457 459)
(460 458)
(459 461)
(462 460)
(461 463)
(464 462)
(463 465)
(466 464)
(465 467)
(468 466)
(467 469)
(470 468)
(469 471)
(472 470)
(471 473)
(474 472)
(473 475)
(476 474)
(475 477)
(477 478)
(479 476)
(478 480)
(481 479)
(482 481)
(480 483)
(484 482)
(483 485)
(486 484)
(485 487)
(488 486)
(487 489)
(490 488)
(489 491)
(492 490)
(491 493)
(494 492)
(493 495)
(496 494)
(495 497)
(498 496)
(497 499)
(500 498)
(499 501)
(501 502)
(503 500)
(504 503)
(502 505)
(505 506)
(507 504)
(508 507)
(506 509)
(509 510)
(511 508)
(512 511)
(510 513)
(514 512)
(513 515)
(516 514)
(515 517)
(517 518)
(519 516)
(518 520)
(521 519)
(520 522)
(523 521)
(522 524)
(525 523)
(524 526)
(527 525)
(526 528)
(529 527)
(528 530)
(531 529)
(532 531)
(530 533)
(534 532)
(533 535)
(536 534)
(535 537)
(538 536)
(537 539)
(540 538)
(539 541)
(542 540)
(541 543)
(544 542)
(543 545)
(545 546)
(547 544)
(546 548)
(549 547)
(548 550)
(551 549)
(550 552)
(553 551)
(554 553)
(552 555)
(555 556)
(557 554)
(556 558)
(559 557)
(558 560)
(561 559)
(560 562)
(563 561)
(562 564)
(565 563)
(564 566)
(567 565)
(566 568)
(569 567)
(568 570)
(571 569)
(570 572)
(573 571)
(572 574)
(575 573)
(574 576)
(577 575)
(576 578)
(579 577)
(578 580)
(581 579)
(580 582)
(583 581)
(582 584)
(585 583)
(584 586)
(587 585)
(586 588)
(589 587)
(588 590)
(591 589)
(592 591)
(590 593)
(594 592)
(593 595)
(596 594)
(595 597)
(598 596)
(597 599)
(600 598)
(599 601)
(602 600)
(601 603)
(604 602)
(603 605)
(606 604)
(605 607)
(608 606)
(607 609)
(610 608)
(609 611)
(612 610)